<?xml version="1.0" encoding="UTF-8"?>

<!-- generated on 01/18/19 11:12:05 by Eclipse SUMO duarouter Version 1.0.1
<configuration xmlns:xsi="http://www.w3.org/2001/XMLSchema-instance" xsi:noNamespaceSchemaLocation="http://sumo.dlr.de/xsd/duarouterConfiguration.xsd">

    <input>
        <net-file value="osm.net.xml"/>
        <route-files value="osm.bus.trips.xml"/>
    </input>

    <output>
        <output-file value="osm.bus.rou.xml"/>
        <alternatives-output value="osm.bus.rou.alt.xml"/>
    </output>

    <time>
        <begin value="0"/>
        <end value="3600.0"/>
    </time>

    <report>
        <no-warnings value="true"/>
        <ignore-errors value="true"/>
        <no-step-log value="true"/>
    </report>

</configuration>
-->

<routes xmlns:xsi="http://www.w3.org/2001/XMLSchema-instance" xsi:noNamespaceSchemaLocation="http://sumo.dlr.de/xsd/routes_file.xsd">
    <vType id="bus_bus" vClass="bus"/>
    <vehicle id="bus0" type="bus_bus" depart="0.00" departLane="best">
        <route edges="37916549 37916541 435973649#2-AddedOnRampEdge 435973649#2 435973649#2-AddedOffRampEdge 128515120 237048431 235497116 128519863#0 128519863#1 229739163 212723119#1 8579186#0 8579186#1 8579186#2 565942869 211060855#0 211060855#1 211060855#2 231281388#2 196799738#0 425927089 428111149#0 428111149#1 16652239 425927090 197054866#2 -197054862"/>
    </vehicle>
    <vehicle id="bus1" type="bus_bus" depart="8.99" departLane="best">
        <route edges="141294961#4 424630824#0 424630837#2 212723117#3 235497116 128519863#0 128519863#1 229739163 212723119#1 212723119#3 565903323#0 128519864"/>
    </vehicle>
    <vehicle id="bus2" type="bus_bus" depart="17.98" departLane="best">
        <route edges="212723114 212723119#1 8579186#0 8579186#1 8579186#2 565942869 211060855#0 244936637#2 108358683#1 -211060858"/>
    </vehicle>
    <vehicle id="bus3" type="bus_bus" depart="26.98" departLane="best">
        <route edges="128511288#0 -128511288#0 37916541 435973649#2-AddedOnRampEdge 435973649#2 435973649#2-AddedOffRampEdge 128515120 237048431 235497116 128519863#0 128519863#1 229739163 212723119#1 8579186#0 8579186#1 8579186#2 565942869 211060855#0 211060855#1 211060855#2 231281388#2 196799738#0 425927089 428111149#0 428111149#1 16652239 425927090 197054866#2 196799729#0 196799729#1 72916497 456287381 251628555"/>
    </vehicle>
    <vehicle id="bus4" type="bus_bus" depart="35.97" departLane="best">
        <route edges="-196799729#0 196799729#0 196799729#1 72916497 38738769#0 38738769#1 -425927088 -16652218 -428111149#0 -196799743 34436959#0 34436959#1 34436959#2 8579181#2 -217770340 -462992553 -560266875#1 -560266875#0 -128511286 565903323#0 79669498#0 79669498#1 128511291#0 128511291#1 128511291#2 620987193#0 620987193#1 229739161#0 229739161#0-AddedOffRampEdge 229739162 128519863#1 235497117#0 235497122 128515118#1-AddedOnRampEdge 128515118#1"/>
    </vehicle>
    <vehicle id="bus5" type="bus_bus" depart="44.96" departLane="best">
        <route edges="37916640 371375600#1 128515111 620987193#0 620987193#1 229739161#0 229739161#0-AddedOffRampEdge 229739162 128519863#1 229739163 212723119#1 8579186#0 8579186#1 8579186#2 565942869 211060855#0 244936637#2 108358683#1 -211060858 231281389#0 231281389#1 290026187#2"/>
    </vehicle>
    <vehicle id="bus6" type="bus_bus" depart="53.95" departLane="best">
        <route edges="430124768#0 -430124767 212353005#2 22909512 128511286 560266875#0 560266875#1 462992553 217770340 211060856 196799738#0 425927089 428111149#0 428111149#1 -16652218"/>
    </vehicle>
    <vehicle id="bus7" type="bus_bus" depart="62.95" departLane="best">
        <route edges="172433906 524487872#0 524487872#1 38738766 153916350 153916349 153916351 231281385#2 211060858 424630860#0 424630860#1 424630860#2 424630860#3 424630860#4 424630860#5 -424630800 8579409 -8579414#0"/>
    </vehicle>
    <vehicle id="bus9" type="bus_bus" depart="80.93" departLane="best">
        <route edges="251628555 -251628555 -456287380 38738769#0 38738769#1 -425927088 -16652218 -428111149#0 -196799743 34436959#0 34436959#1 34436959#2 8579181#2 -217770340 8579185"/>
    </vehicle>
    <vehicle id="bus11" type="bus_bus" depart="98.91" departLane="best">
        <route edges="435973649#2-AddedOffRampEdge 128515120 237048431 235497116 128519863#0 128519863#1 229739163 212723119#1 8579186#0 8579186#1 8579186#2 565942869 211060855#0 211060855#1 211060855#2 231281388#2 196799738#0 425927089 428111149#0 428111149#1 16652239 425927090 197054866#2 196799729#0 196799729#1 72916497 456287381 251628555 38508500#0 369631338 369630802#0 38508531"/>
    </vehicle>
    <vehicle id="bus12" type="bus_bus" depart="107.91" departLane="best">
        <route edges="462992753 16976549 565942869 211060855#0 211060855#1 211060855#2 231281388#2 196799738#0 425927089 428111149#0 428111149#1 16652239 425927090 197054866#2 196799729#0 196799729#1 72916497 456287381 251628555 38508500#0 369631339 369630802#2"/>
    </vehicle>
    <vehicle id="bus13" type="bus_bus" depart="116.90" departLane="best">
        <route edges="128515110#0 128515110#1 128515111 620987193#0 620987193#1 229739161#0 229739161#0-AddedOffRampEdge 229739161#1 212723116 168667916 278920581 241926086 16975627 16975711 23000026 16975738#0 16975738#1"/>
    </vehicle>
    <vehicle id="bus15" type="bus_bus" depart="134.88" departLane="best">
        <route edges="-424630837#2 424630837#2 212723117#3 235497116 168667916 278920581 241926086 16975627 16975711"/>
    </vehicle>
    <vehicle id="bus16" type="bus_bus" depart="143.88" departLane="best">
        <route edges="371375600#1 128515111 620987193#0 620987193#1 229739161#0 229739161#0-AddedOffRampEdge 229739161#1 212723116 168667916 424630809#0 424630809#1 424630809#2 424630809#3 424630809#4 424630809#5 424630809#6 -424630814#2 -424630814#1 -424630814#0 -8579406 22999494 565522125 -8579183 196799737"/>
    </vehicle>
    <vehicle id="bus18" type="bus_bus" depart="161.86" departLane="best">
        <route edges="37916640 371375600#1 128515111 183462533 212353005#0 212353005#1 212353005#2 22909512 128511286 560266875#0 560266875#1 462992553 217770340 211060856 196799738#0 425927089 428111149#0 428111149#1 16652239 425927090 197054866#2 196799729#0 196799729#1 72916497 456287381 251628555 38508500#0 38508498"/>
    </vehicle>
    <vehicle id="bus20" type="bus_bus" depart="179.85" departLane="best">
        <route edges="8579414#0 -8579409 424630800 424630817 -424630799 424632413#1 424630809#6 424630809#7 -8579169#0 -16975352 -16976549 -560266875#1 -560266875#0 -128511286 565903323#0 79669498#0 39081424"/>
    </vehicle>
    <vehicle id="bus21" type="bus_bus" depart="188.84" departLane="best">
        <route edges="128515110#0 128515110#1 128515111 183462533 212353005#0 212353005#1 212353005#2 22909512 128511286 560266875#0 560266875#1 462992553 217770340 211060856 196799738#0 425927089 428111149#0 428111149#1 16652239 425927090 197054866#2 196799729#0 196799729#1 72916497 456287381 251628555 217333505#0 -217333505#0"/>
    </vehicle>
    <vehicle id="bus23" type="bus_bus" depart="206.82" departLane="best">
        <route edges="-8579409 424630800 424630817 -424630799 424632413#1 424630809#6 424630809#7 -8579169#0 -16975352 -16976549 -560266875#1 -560266875#0 -128511286 565903323#0 79669498#0"/>
    </vehicle>
    <vehicle id="bus24" type="bus_bus" depart="215.81" departLane="best">
        <route edges="38508500#0 369631339 369630802#2 456287379 72916500 72916497 38738769#0 38738769#1 -425927088 -16652218 -428111149#0 -196799743 34436959#0 34436959#1 34436959#2 8579181#2 -217770340 -462992553 -462992753 211060853"/>
    </vehicle>
    <vehicle id="bus25" type="bus_bus" depart="224.81" departLane="best">
        <route edges="620987193#1 229739161#0 229739161#0-AddedOffRampEdge 229739162 128519863#1 229739163 212723119#1 8579186#0 8579186#1 8579186#2 565942869 211060855#0 211060855#1 211060855#2 231281385#1"/>
    </vehicle>
    <vehicle id="bus26" type="bus_bus" depart="233.80" departLane="best">
        <route edges="128519869 212723119#1 430125563 128515118#0 128515118#1-AddedOnRampEdge 128515118#1 183462527#1 183462563-AddedOnRampEdge 183462563 15260367"/>
    </vehicle>
    <vehicle id="bus27" type="bus_bus" depart="242.79" departLane="best">
        <route edges="278923388#2 37916549 37916541 435973649#2-AddedOnRampEdge 435973649#2 435973649#2-AddedOffRampEdge 128515120 237048431 235497116 128519863#0 128519863#1 229739163 212723119#1 8579186#0 8579186#1 8579186#2 565942869 211060855#0 211060855#1 211060855#2 231281388#2 196799738#0 425927089 428111149#0 428111149#1 16652239"/>
    </vehicle>
    <vehicle id="bus28" type="bus_bus" depart="251.78" departLane="best">
        <route edges="197054866#2 196799729#0 196799729#1 72916497 38738769#0 38738769#1 -425927088 -16652218 -428111149#0 -196799743 34436959#0 34436959#1 34436959#2 8579181#2 -217770340 -462992553 -560266875#1 -560266875#0 -128511286 565903323#0 79669498#0 79669498#1 128511291#0 128511291#1 128511291#2 620987193#0 620987193#1 229739161#0 229739161#0-AddedOffRampEdge 229739162 128519863#1"/>
    </vehicle>
    <vehicle id="bus30" type="bus_bus" depart="269.77" departLane="best">
        <route edges="-424630827#1 -8579414#1 -8579409 424630800 424630817 -424630799 424632413#1 424630809#6 424630809#7 -8579169#0 -16975352 565942869 211060855#0 211060855#1 211060855#2 231281388#2 196799738#0 425927089 428111149#0 428111149#1 16652239 425927090 197054866#2 196799729#0 196799729#1 72916497 456287381 251628555 -251628555"/>
    </vehicle>
    <vehicle id="bus31" type="bus_bus" depart="278.76" departLane="best">
        <route edges="-424632408 424632408 172728802#1 172728802#2 424630809#2 424630809#3 424630809#4 424630809#5 424630809#6 424630809#7 -8579169#0 -16975352 565942869 211060855#0 211060855#1 211060855#2 231281388#2 196799738#0 34436959#0 38738612#0"/>
    </vehicle>
    <vehicle id="bus32" type="bus_bus" depart="287.75" departLane="best">
        <route edges="428111148 425927085 -196799743 34436959#0 34436959#1 34436959#2 8579181#2 -217770340 -462992553 -560266875#1 -560266875#0 -128511286 565903323#0 79669498#0 79669498#1 128511291#0 128511291#1 128511291#2 620987193#0 620987193#1 229739161#0 229739161#0-AddedOffRampEdge 229739161#1 212723116"/>
    </vehicle>
    <vehicle id="bus33" type="bus_bus" depart="296.74" departLane="best">
        <route edges="-38738612#1 34436959#1 34436959#2 8579181#2 -217770340 -462992553 -560266875#1 -560266875#0 -128511286 565903323#0 211051649"/>
    </vehicle>
    <vehicle id="bus34" type="bus_bus" depart="305.74" departLane="best">
        <route edges="8579414#0 -8579409 141294961#2 141294961#3 141294961#4 424630824#0 424630837#2 212723117#3 235497116 128519863#0 128519863#1 235497117#0 235497122 128515118#1-AddedOnRampEdge 128515118#1 435973648 435973649#1 435973649#2-AddedOnRampEdge 435973649#2 435973649#2-AddedOffRampEdge 128515117#0 128515117#0-AddedOffRampEdge 128515117#1 278923388#2"/>
    </vehicle>
    <vehicle id="bus35" type="bus_bus" depart="314.73" departLane="best">
        <route edges="8579181#0 8579181#2 -217770340 -462992553 -560266875#1 498875214 498875212"/>
    </vehicle>
    <vehicle id="bus36" type="bus_bus" depart="323.72" departLane="best">
        <route edges="-128519864 79669498#0 79669498#1 128511291#0 128511291#1 212353005#0 212353005#1 212353005#2 22909512 128511286 560266874#0 560266874#1 8579186#1 8579186#2 565942869 211060855#0 244936637#2 108358683#1 424630860#0"/>
    </vehicle>
    <vehicle id="bus37" type="bus_bus" depart="332.71" departLane="best">
        <route edges="38738769#1 -425927088 -16652218 -428111149#0 -196799743 34436959#0 34436959#1 34436959#2 8579181#2 -217770340 -462992553 -560266875#1 -560266875#0 -128511286 565903323#0 79669498#0 79669498#1 128511291#0 128511291#1 128511291#2 620987193#0 620987193#1 435973648 435973649#1 435973649#2-AddedOnRampEdge 435973649#2 435973649#2-AddedOffRampEdge 128515117#0 128515117#0-AddedOffRampEdge 128515117#1 278923388#2 278923388#3"/>
    </vehicle>
    <vehicle id="bus39" type="bus_bus" depart="350.70" departLane="best">
        <route edges="229739161#1 212723116 168667916 424630809#0 424630809#1 424630809#2 424630809#3 424630809#4 424630809#5 424630809#6 -424630814#2 -424630814#1 -424630814#0 -8579406 22999494 565522125 -8579183 312285778#0 46892580 8103471#0 8103471#1"/>
    </vehicle>
    <vehicle id="bus40" type="bus_bus" depart="359.69" departLane="best">
        <route edges="620987193#0 620987193#1 229739161#0 229739161#0-AddedOffRampEdge 229739161#1 212723116 168667916 278920581 241926086 16975627 454557950 -454557952 16975658 524220662 524259147#1 524259147#2"/>
    </vehicle>
    <vehicle id="bus41" type="bus_bus" depart="368.68" departLane="best">
        <route edges="153916355#0 565522125 211060852#0 211060852#1 211060852#2 211060855#0 211060855#1 211060855#2 231281388#2 196799738#0 425927089 428111149#0 428111149#1 16652239 425927090 197054866#2 196799729#0 196799729#1 72916497 38738769#0 38738769#1"/>
    </vehicle>
    <vehicle id="bus42" type="bus_bus" depart="377.67" departLane="best">
        <route edges="369630801#0 369630801#1 369630802#0 369630802#1 369630802#2 456287379 72916500 72916497 38738769#0 38738769#1 -425927088 -16652218 -428111149#0 -196799743 196799735#2 231281381#1 231281381#2 231281385#1 231281385#2 211060858 424630860#0 424630860#1 424630860#2 424630860#3 424630860#4 424630860#5 -424630800 8579409 -8579409"/>
    </vehicle>
    <vehicle id="bus43" type="bus_bus" depart="386.67" departLane="best">
        <route edges="425926843 425926841 369637281 8579136 -425927088 -16652218 -428111149#0 -196799743 34436959#0 34436959#1 34436959#2 8579181#2 -217770340 -462992553 -560266875#1 -560266875#0 -128511286 565903323#0 79669498#0 79669498#1 128511291#0 128511291#1 128511291#2 620987193#0 620987193#1 435973648 435973649#1 435973649#2-AddedOnRampEdge 435973649#2 435973649#2-AddedOffRampEdge 128515117#0 128515117#0-AddedOffRampEdge 128515117#1 278923388#2 278923388#3"/>
    </vehicle>
    <vehicle id="bus44" type="bus_bus" depart="395.66" departLane="best">
        <route edges="-16976549 462992553 217770340 211060856 196799738#0 425927089 428111149#0 428111149#1 16652239 425927090 197054866#2 196799729#0 196799729#1 72916497"/>
    </vehicle>
    <vehicle id="bus45" type="bus_bus" depart="404.65" departLane="best">
        <route edges="524259568 524487872#0 524487872#1 38738766 153916350 153916356 278916136 456291852 456291853 435973657"/>
    </vehicle>
    <vehicle id="bus46" type="bus_bus" depart="413.64" departLane="best">
        <route edges="168667916 424630809#0 424630809#1 424630809#2 424630809#3 424630809#4 424630809#5 424630809#6 424630809#7 -8579169#0 -16975352 565942869 211060855#0 211060855#1 211060855#2 231281388#2 196799738#0 425927089 428111149#0 428111149#1 16652239 425927090 197054866#2 196799729#0 196799729#1 72916497 456287381 251628555 38508500#0 369631338 -369630801#1 -369630801#0"/>
    </vehicle>
    <vehicle id="bus47" type="bus_bus" depart="422.64" departLane="best">
        <route edges="524259568 524487872#0 524487872#1 38738766 153916350 153916349 153916351 231281385#2 231281389#0 231281389#1 231281389#3 312285778#0 46892580 8103471#0"/>
    </vehicle>
    <vehicle id="bus48" type="bus_bus" depart="431.63" departLane="best">
        <route edges="-424630827#1 -424630827#0 141294961#3 141294961#4 424630824#0 424630837#2 212723117#3 235497116 128519863#0 128519863#1 235497117#0 235497122 128515118#1-AddedOnRampEdge 128515118#1 128515118#2 128515110#0 128515110#1 237169411"/>
    </vehicle>
    <vehicle id="bus49" type="bus_bus" depart="440.62" departLane="best">
        <route edges="-39081424 79669498#1 128511291#0 128511291#1 212353005#0 212353005#1 212353005#2 22909512 128511286 560266875#0 560266875#1 462992553 217770340 211060856 196799738#0 425927089 428111149#0 428111149#1 16652239 425927090 8579138 425926847"/>
    </vehicle>
    <vehicle id="bus50" type="bus_bus" depart="449.61" departLane="best">
        <route edges="424632413#0 424632413#1 424630809#6 424630809#7 -8579169#0 -16975352 565942869 211060855#0 211060855#1 211060855#2 231281388#2 196799738#0 425927089 428111149#0 428111149#1 16652239 425927090 197054866#2 196799729#0 196799729#1 72916497 456287381 -456287380"/>
    </vehicle>
    <vehicle id="bus51" type="bus_bus" depart="458.60" departLane="best">
        <route edges="231281388#2 231281381#1 231281381#2 231281385#1 231281385#2 211060858 424630860#0 424630860#1 211060852#1 246708378 -16975352 -16976549 -560266875#1 -560266875#0 -128511286 565903323#0 79669498#0 79669498#1 310454395#0"/>
    </vehicle>
    <vehicle id="bus52" type="bus_bus" depart="467.60" departLane="best">
        <route edges="128519869 212723119#1 430125563 128515118#0 128515118#1-AddedOnRampEdge 128515118#1 229739161#0 229739161#0-AddedOffRampEdge 229739161#1 212723116 168667916 278920581 241926086 16975627 454557950 -454557952 16975658 524220662 524259147#1 524259147#2 524259147#3"/>
    </vehicle>
    <vehicle id="bus53" type="bus_bus" depart="476.59" departLane="best">
        <route edges="212723114 212723119#1 430125563 128515118#0 128515118#1-AddedOnRampEdge 128515118#1 128515118#2 128515118#3 128515118#4"/>
    </vehicle>
    <vehicle id="bus56" type="bus_bus" depart="503.57" departLane="best">
        <route edges="212723119#1 430125563 128515118#0 128515118#1-AddedOnRampEdge 128515118#1 229739161#0 229739161#0-AddedOffRampEdge 229739161#1 212723116 168667916 278920581 241926086 16975627 16975711 23000026 16975744 16975887#3 16975887#4 16975887#5 273593640#1"/>
    </vehicle>
    <vehicle id="bus57" type="bus_bus" depart="512.56" departLane="best">
        <route edges="-425846506 -217333505#0 -251628555 -456287380 38738769#0 38738769#1 -425927088 -16652218 -428111149#0 -196799743 34436959#0 34436959#1 34436959#2 8579181#2 -217770340 -462992553 -560266875#1 -560266875#0 -128511286 565903323#0 128519864"/>
    </vehicle>
    <vehicle id="bus59" type="bus_bus" depart="530.54" departLane="best">
        <route edges="-39081424 79669498#1 128511291#0 128511291#1 212353005#0 212353005#1 212353005#2 22909512 128511286 560266875#0 560266875#1 462992553 217770340 211060856 196799738#0 34436959#0 38738612#0"/>
    </vehicle>
    <vehicle id="bus61" type="bus_bus" depart="548.53" departLane="best">
        <route edges="231281385#2 211060858 424630860#0 424630860#1 211060852#1 246708378 -16975352 -16976549 -560266875#1 -560266875#0 -128511286 565903323#0 79669498#0 79669498#1 128511291#0 128511291#1 212353005#0 212353005#1 430124767 430124768#1"/>
    </vehicle>
    <vehicle id="bus62" type="bus_bus" depart="557.52" departLane="best">
        <route edges="-424630828#1 424630828#1 424630809#3 424630809#4 424630809#5 424630809#6 424630809#7 -8579169#0 -16975352 565942869 211060855#0 211060855#1 211060855#2 231281388#2 196799738#0 425927089 428111149#0 428111149#1 16652239 425927090 197054866#2 196799729#0 196799729#1 72916497 456287381 251628555 217333505#0"/>
    </vehicle>
    <vehicle id="bus63" type="bus_bus" depart="566.51" departLane="best">
        <route edges="212723116 128519863#0 128519863#1 229739163 212723119#1 8579186#0 8579186#1 8579186#2 565942869 211060855#0 244936637#2 108358683#1 -211060858 231281389#0 231281389#1"/>
    </vehicle>
    <vehicle id="bus65" type="bus_bus" depart="584.50" departLane="best">
        <route edges="462992753 -560266875#1 -560266875#0 -128511286 565903323#0 79669498#0 79669498#1 128511291#0 128511291#1 128511291#2 620987193#0 620987193#1 183462527#1 183462563-AddedOnRampEdge 183462563 15260367"/>
    </vehicle>
    <vehicle id="bus66" type="bus_bus" depart="593.49" departLane="best">
        <route edges="212723114 212723119#1 430125563 128515118#0 128515118#1-AddedOnRampEdge 128515118#1 229739161#0 229739161#0-AddedOffRampEdge 229739161#1 212723116 168667916 278920581 241926086 16975627 16975711"/>
    </vehicle>
    <vehicle id="bus67" type="bus_bus" depart="602.48" departLane="best">
        <route edges="128515118#1-AddedOnRampEdge 128515118#1 229739161#0 229739161#0-AddedOffRampEdge 229739162 128519863#1 229739163 212723119#1 8579186#0 8579186#1 8579186#2 565942869 211060855#0 211060855#1 211060855#2 231281388#2 196799738#0 425927089 428111149#0 428111149#1 16652239 425927090 197054866#2 196799729#0 196799729#1 72916497 456287381 34431215 621526225"/>
    </vehicle>
    <vehicle id="bus68" type="bus_bus" depart="611.47" departLane="best">
        <route edges="217333505#1 -425846506 -217333505#0 -251628555 -456287380 38738769#0 38738769#1 -425927088 -16652218 -428111149#0 -196799743 34436959#0 34436959#1 34436959#2 8579181#2 -217770340 -462992553 -560266875#1 498875214 498875212"/>
    </vehicle>
    <vehicle id="bus69" type="bus_bus" depart="620.47" departLane="best">
        <route edges="278916136 456291852 128519869 212723119#1 8579186#0 8579186#1 8579186#2 565942869 211060855#0 211060855#1 211060855#2 231281388#2 196799738#0 425927089 428111149#0 428111149#1 16652239 425927090 197054866#2 196799729#0 196799729#1 72916497 456287381 251628555 38508500#0 369631338 -369630801#1 -369630801#0"/>
    </vehicle>
    <vehicle id="bus74" type="bus_bus" depart="665.43" departLane="best">
        <route edges="8579138 369637281 8579136 -425927088 -16652218 -428111149#0 -196799743 34436959#0 34436959#1 34436959#2 8579181#2 -217770340 -462992553 -560266875#1 8579426"/>
    </vehicle>
    <vehicle id="bus75" type="bus_bus" depart="674.42" departLane="best">
        <route edges="-430127810 560266874#1 8579186#1 8579186#2 565942869 211060855#0 211060855#1 211060855#2 231281388#2 196799738#0 425927089 428111149#0 428111149#1 16652239 425927090 197054866#2 196799729#0 196799729#1 72916497 456287381 251628555 217333505#0 237470831#0 237470831#1 16975887#2 16975887#3"/>
    </vehicle>
    <vehicle id="bus76" type="bus_bus" depart="683.41" departLane="best">
        <route edges="8579181#0 8579181#2 211060856 196799738#0 425927089 428111149#0 428111149#1 16652239 425927090 197054866#2 196799729#0 196799729#1 72916497 456287381 251628555 38508500#0 369631338"/>
    </vehicle>
    <vehicle id="bus80" type="bus_bus" depart="719.38" departLane="best">
        <route edges="35797465 278923387 278923388#0 128515119 128515112 235497116 168667916 424630809#0 424630809#1 424630809#2 424630809#3 424630809#4 424630809#5"/>
    </vehicle>
    <vehicle id="bus81" type="bus_bus" depart="728.37" departLane="best">
        <route edges="128515117#0-AddedOffRampEdge 278923392 128515112 235497116 128519863#0 128519863#1 229739163 212723119#1 8579186#0 8579186#1 8579186#2 565942869 211060855#0 211060855#1 211060855#2 231281388#2 196799738#0 34436959#0 34436959#1 -430124787"/>
    </vehicle>
    <vehicle id="bus82" type="bus_bus" depart="737.36" departLane="best">
        <route edges="560266874#0 -560266874#0 -128511286 565903323#0 79669498#0 79669498#1 128511291#0 128511291#1 128511291#2 620987193#0 620987193#1 183462527#1 183462563-AddedOnRampEdge 183462563 15260367"/>
    </vehicle>
    <vehicle id="bus83" type="bus_bus" depart="746.36" departLane="best">
        <route edges="35797465 278923387 278923388#0 128515119 128515112 235497116 128519863#0 128519863#1 229739163 212723119#1 8579186#0 8579186#1 8579186#2 565942869 211060855#0 211060855#1 211060855#2 231281388#2 196799738#0 425927089 428111149#0 428111149#1 16652239 425927090 197054866#2 196799729#0 196799729#1 72916497 456287381 251628555 38508500#0 369631338 369630802#0 38508531"/>
    </vehicle>
    <vehicle id="bus84" type="bus_bus" depart="755.35" departLane="best">
        <route edges="212353005#1 212353005#2 22909512 128511286 560266875#0 560266875#1 462992553 217770340 211060856 196799738#0 425927089 428111149#0 428111149#1 16652239 425927090 8579138 369637281"/>
    </vehicle>
    <vehicle id="bus85" type="bus_bus" depart="764.34" departLane="best">
        <route edges="246708378 8579169#0 8579169#1 424630860#3 424630860#4 424630860#5 -424630800 141294961#2 141294961#3 141294961#4 424630807#1 424630819#6 278920581 241926086 565519143 72921505"/>
    </vehicle>
    <vehicle id="bus86" type="bus_bus" depart="773.33" departLane="best">
        <route edges="128515117#0-AddedOffRampEdge 278923392 128515112 235497116 128519863#0 128519863#1 229739163 212723119#1 212723119#3 128511286 560266875#0 560266875#1 -462992753 211060853"/>
    </vehicle>
    <vehicle id="bus88" type="bus_bus" depart="791.32" departLane="best">
        <route edges="-39081424 79669498#1 128511291#0 128511291#1 212353005#0 212353005#1 212353005#2 22909512 128511286 560266874#0 560266874#1 8579186#1 8579186#2 565942869 211060855#0 211060855#1 211060855#2 231281385#1"/>
    </vehicle>
    <vehicle id="bus89" type="bus_bus" depart="800.31" departLane="best">
        <route edges="96124534 153878962 153916351 231281385#2 211060858 424630860#0 424630860#1 211060852#1 246708378 -16975352 -16976549 -560266875#1 8579426"/>
    </vehicle>
    <vehicle id="bus90" type="bus_bus" depart="809.30" departLane="best">
        <route edges="-424630799 424632413#1 424630809#6 424630809#7 -8579169#0 -16975352 -16976549 -560266875#1 -560266875#0 -128511286 565903323#0 79669498#0 79669498#1 128511291#0 128511291#1 128511291#2 620987193#0 620987193#1 128515118#2 128515118#3 128515118#4"/>
    </vehicle>
    <vehicle id="bus92" type="bus_bus" depart="827.29" departLane="best">
        <route edges="435973656 456291852 128519869 212723119#1 8579186#0 8579186#1 8579186#2 565942870 8579169#0 8579169#1 424630860#3 424630860#4 424630860#5 -424630800 8579409 8579414#1 424630827#1"/>
    </vehicle>
    <vehicle id="bus93" type="bus_bus" depart="836.28" departLane="best">
        <route edges="369630801#0 369630801#1 369630802#0 369630802#1 369630802#2 456287379 72916500 72916497 38738769#0 38738769#1 -425927088 -16652218 -428111149#0 -196799743 196799735#2 231281381#1 231281381#2 231281385#1 231281385#2 211060858 424630860#0 424630860#1 424630860#2 424630860#3 424630860#4 424630860#5 -424630800 8579409"/>
    </vehicle>
    <vehicle id="bus94" type="bus_bus" depart="845.27" departLane="best">
        <route edges="37916640 371375600#1 128515111 620987193#0 620987193#1 229739161#0 229739161#0-AddedOffRampEdge 229739162 128519863#1 229739163 212723119#1 8579186#0 8579186#1 8579186#2 565942870 -16975352"/>
    </vehicle>
    <vehicle id="bus95" type="bus_bus" depart="854.26" departLane="best">
        <route edges="430124787 34436959#2 8579181#2 211060856 196799738#0 425927089 428111149#0 428111149#1 16652239 425927090 197054866#2 196799729#0 196799729#1 72916497 456287381 251628555 217333505#0 237470831#0 237470831#1 16975887#2 16975887#3 16975887#4"/>
    </vehicle>
    <vehicle id="bus96" type="bus_bus" depart="863.26" departLane="best">
        <route edges="-428111149#0 -196799743 34436959#0 34436959#1 34436959#2 8579181#2 -217770340 -462992553 -560266875#1 -560266875#0 -128511286 565903323#0 79669498#0 79669498#1 128511291#0 128511291#1 212353005#0 212353005#1 430124767 -430124768#0"/>
    </vehicle>
    <vehicle id="bus97" type="bus_bus" depart="872.25" departLane="best">
        <route edges="-424632407 172728802#2 424630809#2 424630809#3 424630809#4 424630809#5 424630809#6 424630809#7 -8579169#0 -16975352 -16976549 -560266875#1 -560266875#0 -128511286 565903323#0 79669498#0 79669498#1 310454395#0"/>
    </vehicle>
    <vehicle id="bus98" type="bus_bus" depart="881.24" departLane="best">
        <route edges="141294961#3 141294961#4 424630807#1 424630819#6 424630809#0 424630809#1 424630809#2 424630809#3 424630809#4 424630809#5 424630809#6 424630809#7 -8579169#0 -16975352 565942869 211060855#0 211060855#1 211060855#2 231281388#2 196799738#0 425927089 428111149#0 428111149#1 16652239 425927090 197054866#2 196799729#0 196799729#1 72916497 456287381 251628555 38508500#0 38508498"/>
    </vehicle>
    <vehicle id="bus99" type="bus_bus" depart="890.23" departLane="best">
        <route edges="371375600#0 371375600#1 128515111 620987193#0 620987193#1 229739161#0 229739161#0-AddedOffRampEdge 229739161#1 212723116 168667916"/>
    </vehicle>
    <vehicle id="bus100" type="bus_bus" depart="899.23" departLane="best">
        <route edges="456287381 -456287380 38738769#0 38738769#1 -425927088 -16652218 -428111149#0 -196799743 196799735#2 231281381#1 231281381#2 231281385#1 231281385#2 211060858 424630860#0 424630860#1 424630860#2 424630860#3 424630860#4 424632413#0 424630799 278920578 -424630866#0"/>
    </vehicle>
    <vehicle id="bus101" type="bus_bus" depart="908.22" departLane="best">
        <route edges="212723116 168667916 278920581 241926086 16975627 454557950 -454557952 16975658"/>
    </vehicle>
    <vehicle id="bus102" type="bus_bus" depart="917.21" departLane="best">
        <route edges="-128511288#0 37916541 435973649#2-AddedOnRampEdge 435973649#2 435973649#2-AddedOffRampEdge 128515120 237048431 235497116 128519863#0 128519863#1 229739163 212723119#1 8579186#0 8579186#1 8579186#2 565942869 211060855#0 211060855#1 211060855#2 231281388#2 196799738#0 425927089 428111149#0 428111149#1 16652239 425927090 425927626"/>
    </vehicle>
    <vehicle id="bus103" type="bus_bus" depart="926.20" departLane="best">
        <route edges="37916541 435973649#2-AddedOnRampEdge 435973649#2 435973649#2-AddedOffRampEdge 128515120 237048431 235497116 128519863#0 128519863#1 229739163 212723119#1 8579186#0 8579186#1 8579186#2 565942869 211060855#0 211060855#1 211060855#2 231281388#2 196799738#0 425927089 428111149#0 428111149#1 16652239"/>
    </vehicle>
    <vehicle id="bus104" type="bus_bus" depart="935.19" departLane="best">