<?xml version="1.0" encoding="UTF-8"?>

<!-- generated on 01/18/19 11:12:04 by Eclipse SUMO netconvert Version 1.0.1
<configuration xmlns:xsi="http://www.w3.org/2001/XMLSchema-instance" xsi:noNamespaceSchemaLocation="http://sumo.dlr.de/xsd/netconvertConfiguration.xsd">

    <input>
        <type-files value="C:\Program%20Files%20(x86)\Eclipse\Sumo\data\typemap\osmNetconvert.typ.xml"/>
        <osm-files value="C:\Users\fbene\Sumo\2019-01-18-11-11-59\osm_bbox.osm.xml"/>
    </input>

    <output>
        <output-file value="C:\Users\fbene\Sumo\2019-01-18-11-11-59\osm.net.xml"/>
        <output.street-names value="true"/>
        <output.original-names value="true"/>
    </output>

    <projection>
        <proj.utm value="true"/>
    </projection>

    <processing>
        <geometry.remove value="true"/>
        <roundabouts.guess value="true"/>
    </processing>

    <tls_building>
        <tls.discard-simple value="true"/>
        <tls.join value="true"/>
        <tls.guess-signals value="true"/>
        <tls.default-type value="actuated"/>
    </tls_building>

    <ramp_guessing>
        <ramps.guess value="true"/>
    </ramp_guessing>

    <junctions>
        <junctions.join value="true"/>
        <junctions.corner-detail value="5"/>
    </junctions>

    <report>
        <verbose value="true"/>
    </report>

</configuration>
-->

<net version="1.0" junctionCornerDetail="5" limitTurnSpeed="5.50" xmlns:xsi="http://www.w3.org/2001/XMLSchema-instance" xsi:noNamespaceSchemaLocation="http://sumo.dlr.de/xsd/net_file.xsd">

    <location netOffset="-332339.84,2608426.71" convBoundary="0.00,0.00,3210.15,3876.50" origBoundary="-46.642645,-23.577648,-46.610826,-23.518603" projParameter="+proj=utm +zone=23 +ellps=WGS84 +datum=WGS84 +units=m +no_defs"/>

    <type id="highway.bridleway" priority="1" numLanes="1" speed="2.78" allow="pedestrian" oneway="1" width="2.00"/>
    <type id="highway.bus_guideway" priority="1" numLanes="1" speed="27.78" allow="bus" oneway="1"/>
    <type id="highway.cycleway" priority="1" numLanes="1" speed="8.33" allow="bicycle" oneway="0" width="1.00"/>
    <type id="highway.footway" priority="1" numLanes="1" speed="2.78" allow="pedestrian" oneway="1" width="2.00"/>
    <type id="highway.ford" priority="1" numLanes="1" speed="2.78" allow="army" oneway="0"/>
    <type id="highway.living_street" priority="3" numLanes="1" speed="2.78" disallow="tram rail_urban rail rail_electric ship" oneway="0"/>
    <type id="highway.motorway" priority="13" numLanes="2" speed="44.44" allow="private emergency authority army vip passenger hov taxi bus coach delivery truck trailer motorcycle evehicle custom1 custom2" oneway="1"/>
    <type id="highway.motorway_link" priority="12" numLanes="1" speed="22.22" allow="private emergency authority army vip passenger hov taxi bus coach delivery truck trailer motorcycle evehicle custom1 custom2" oneway="1"/>
    <type id="highway.path" priority="1" numLanes="1" speed="2.78" allow="bicycle pedestrian" oneway="1" width="2.00"/>
    <type id="highway.pedestrian" priority="1" numLanes="1" speed="2.78" allow="pedestrian" oneway="1" width="2.00"/>
    <type id="highway.primary" priority="9" numLanes="2" speed="27.78" disallow="tram rail_urban rail rail_electric ship" oneway="0"/>
    <type id="highway.primary_link" priority="8" numLanes="1" speed="22.22" disallow="tram rail_urban rail rail_electric ship" oneway="0"/>
    <type id="highway.raceway" priority="14" numLanes="2" speed="83.33" allow="vip" oneway="0"/>
    <type id="highway.residential" priority="4" numLanes="1" speed="13.89" disallow="tram rail_urban rail rail_electric ship" oneway="0"/>
    <type id="highway.secondary" priority="7" numLanes="2" speed="27.78" disallow="tram rail_urban rail rail_electric ship" oneway="0"/>
    <type id="highway.secondary_link" priority="6" numLanes="1" speed="22.22" disallow="tram rail_urban rail rail_electric ship" oneway="0"/>
    <type id="highway.service" priority="2" numLanes="1" speed="5.56" allow="delivery bicycle pedestrian" oneway="0"/>
    <type id="highway.stairs" priority="1" numLanes="1" speed="1.39" allow="pedestrian" oneway="1" width="2.00"/>
    <type id="highway.step" priority="1" numLanes="1" speed="1.39" allow="pedestrian" oneway="1" width="2.00"/>
    <type id="highway.steps" priority="1" numLanes="1" speed="1.39" allow="pedestrian" oneway="1" width="2.00"/>
    <type id="highway.tertiary" priority="6" numLanes="1" speed="22.22" disallow="tram rail_urban rail rail_electric ship" oneway="0"/>
    <type id="highway.tertiary_link" priority="5" numLanes="1" speed="22.22" disallow="tram rail_urban rail rail_electric ship" oneway="0"/>
    <type id="highway.track" priority="1" numLanes="1" speed="5.56" disallow="tram rail_urban rail rail_electric ship" oneway="0"/>
    <type id="highway.trunk" priority="11" numLanes="2" speed="27.78" disallow="tram rail_urban rail rail_electric bicycle pedestrian ship" oneway="0"/>
    <type id="highway.trunk_link" priority="10" numLanes="1" speed="22.22" disallow="tram rail_urban rail rail_electric bicycle pedestrian ship" oneway="0"/>
    <type id="highway.unclassified" priority="5" numLanes="1" speed="13.89" disallow="tram rail_urban rail rail_electric ship" oneway="0"/>
    <type id="highway.unsurfaced" priority="1" numLanes="1" speed="8.33" disallow="tram rail_urban rail rail_electric ship" oneway="0"/>
    <type id="railway.light_rail" priority="15" numLanes="1" speed="27.78" allow="rail_urban" oneway="1"/>
    <type id="railway.preserved" priority="15" numLanes="1" speed="27.78" allow="rail" oneway="1"/>
    <type id="railway.rail" priority="15" numLanes="1" speed="83.33" allow="rail rail_electric" oneway="1"/>
    <type id="railway.subway" priority="15" numLanes="1" speed="27.78" allow="rail_urban" oneway="1"/>
    <type id="railway.tram" priority="15" numLanes="1" speed="13.89" allow="tram" oneway="1"/>

    <edge id=":1113784206_0" function="internal">
        <lane id=":1113784206_0_0" index="0" disallow="tram rail_urban rail rail_electric ship" speed="22.22" length="5.02" shape="481.61,2373.90 483.02,2373.42 483.99,2373.09 484.97,2372.82 486.42,2372.48"/>
    </edge>
    <edge id=":1113784634_0" function="internal">
        <lane id=":1113784634_0_0" index="0" disallow="tram rail_urban rail rail_electric ship" speed="6.56" length="8.96" shape="540.31,2354.56 541.50,2356.74 543.09,2358.05 545.06,2358.48 547.42,2358.04"/>
    </edge>
    <edge id=":1113784634_1" function="internal">
        <lane id=":1113784634_1_0" index="0" disallow="tram rail_urban rail rail_electric ship" speed="22.22" length="11.01" shape="536.91,2361.28 539.95,2360.54 542.22,2359.86 544.47,2359.08 547.42,2358.04"/>
    </edge>
    <edge id=":128515117#0-AddedOffRampNode_0" function="internal">
        <lane id=":128515117#0-AddedOffRampNode_0_0" index="0" disallow="tram rail_urban rail rail_electric ship" speed="22.22" length="2.39" shape="1613.67,2577.97 1613.67,2577.97"/>
        <lane id=":128515117#0-AddedOffRampNode_0_1" index="1" disallow="tram rail_urban rail rail_electric ship" speed="22.22" length="2.39" shape="1613.67,2577.97 1614.68,2576.93 1615.54,2576.69 1616.25,2577.23 1616.82,2578.55"/>
    </edge>
    <edge id=":128515118#1-AddedOnRampNode_0" function="internal">
        <lane id=":128515118#1-AddedOnRampNode_0_0" index="0" disallow="tram rail_urban rail rail_electric ship" speed="22.22" length="8.00" shape="1575.92,2308.31 1583.84,2309.45"/>
        <lane id=":128515118#1-AddedOnRampNode_0_1" index="1" disallow="tram rail_urban rail rail_electric ship" speed="22.22" length="8.00" shape="1575.47,2311.48 1583.39,2312.61"/>
        <lane id=":128515118#1-AddedOnRampNode_0_2" index="2" disallow="tram rail_urban rail rail_electric ship" speed="22.22" length="8.00" shape="1575.02,2314.65 1582.94,2315.78"/>
    </edge>
    <edge id=":130009702_0" function="internal">
        <lane id=":130009702_0_0" index="0" disallow="tram rail_urban rail rail_electric bicycle pedestrian ship" speed="12.50" length="11.85" shape="1594.28,2624.66 1592.29,2622.48 1589.40,2622.43 1586.41,2622.42 1584.11,2620.35"/>
        <lane id=":130009702_0_1" index="1" disallow="tram rail_urban rail rail_electric bicycle pedestrian ship" speed="12.50" length="11.85" shape="1597.14,2623.11 1595.16,2620.99 1592.29,2621.01 1589.31,2621.06 1587.04,2619.05"/>
    </edge>
    <edge id=":130009702_2" function="internal">
        <lane id=":130009702_2_0" index="0" disallow="tram rail_urban rail rail_electric bicycle pedestrian ship" speed="13.89" length="7.89" shape="1593.59,2625.03 1592.43,2622.92 1591.66,2621.45 1590.95,2619.96 1589.96,2617.75"/>
        <lane id=":130009702_2_1" index="1" disallow="tram rail_urban rail rail_electric bicycle pedestrian ship" speed="13.89" length="7.89" shape="1596.41,2623.51 1595.28,2621.46 1594.53,2620.04 1593.84,2618.59 1592.88,2616.46"/>
        <lane id=":130009702_2_2" index="2" disallow="tram rail_urban rail rail_electric bicycle pedestrian ship" speed="13.89" length="7.89" shape="1599.22,2621.98 1598.13,2620.00 1597.40,2618.62 1596.73,2617.22 1595.81,2615.16"/>
    </edge>
    <edge id=":130009851_0" function="internal">
        <lane id=":130009851_0_0" index="0" disallow="tram rail_urban rail rail_electric bicycle pedestrian ship" speed="13.89" length="67.75" shape="684.76,2375.78 663.92,2379.24 645.89,2382.75 630.71,2386.15 618.40,2389.26"/>
    </edge>
    <edge id=":130009851_1" function="internal">
        <lane id=":130009851_1_0" index="0" disallow="tram rail_urban rail rail_electric bicycle pedestrian ship" speed="13.89" length="68.43" shape="684.28,2372.61 663.34,2376.10 645.08,2379.67 629.67,2383.12 617.26,2386.26"/>
    </edge>
    <edge id=":130009851_2" function="internal">
        <lane id=":130009851_2_0" index="0" disallow="tram rail_urban rail rail_electric bicycle pedestrian ship" speed="13.89" length="69.11" shape="683.80,2369.45 662.75,2372.96 644.27,2376.58 628.64,2380.09 616.12,2383.25"/>
    </edge>
    <edge id=":130009851_3" function="internal">
        <lane id=":130009851_3_0" index="0" disallow="tram rail_urban rail rail_electric bicycle pedestrian ship" speed="13.89" length="69.53" shape="683.32,2366.29 615.20,2379.82"/>
        <lane id=":130009851_3_1" index="1" disallow="tram rail_urban rail rail_electric bicycle pedestrian ship" speed="13.89" length="69.53" shape="682.84,2363.12 614.65,2376.67"/>
        <lane id=":130009851_3_2" index="2" disallow="tram rail_urban rail rail_electric bicycle pedestrian ship" speed="13.89" length="69.53" shape="682.36,2359.96 614.10,2373.52"/>
    </edge>
    <edge id=":132347429_0" function="internal">
        <lane id=":132347429_0_0" index="0" disallow="tram rail_urban rail rail_electric bicycle pedestrian ship" speed="13.89" length="63.43" shape="744.91,2328.93 755.48,2327.75 770.86,2325.32 789.05,2323.15 808.04,2322.72"/>
        <lane id=":132347429_0_1" index="1" disallow="tram rail_urban rail rail_electric bicycle pedestrian ship" speed="13.89" length="63.43" shape="744.94,2332.13 755.48,2330.95 770.80,2328.52 788.92,2326.35 807.88,2325.91"/>
    </edge>
    <edge id=":132347429_2" function="internal">
        <lane id=":132347429_2_0" index="0" disallow="tram rail_urban rail rail_electric bicycle pedestrian ship" speed="13.89" length="62.49" shape="745.17,2335.76 757.72,2333.80 772.67,2331.30 789.51,2329.37 807.72,2329.11"/>
        <lane id=":132347429_2_1" index="1" disallow="tram rail_urban rail rail_electric bicycle pedestrian ship" speed="13.89" length="62.49" shape="745.55,2338.93 758.01,2336.98 772.78,2334.49 789.44,2332.57 807.57,2332.31"/>
        <lane id=":132347429_2_2" index="2" disallow="tram rail_urban rail rail_electric bicycle pedestrian ship" speed="13.89" length="62.49" shape="745.92,2342.11 758.30,2340.16 772.89,2337.68 789.36,2335.76 807.41,2335.50"/>
    </edge>
    <edge id=":132347430_0" function="internal">
        <lane id=":132347430_0_0" index="0" disallow="tram rail_urban rail rail_electric bicycle pedestrian ship" speed="13.89" length="17.44" shape="973.14,2330.97 978.33,2331.52 981.82,2332.40 985.30,2333.41 990.46,2334.37"/>
        <lane id=":132347430_0_1" index="1" disallow="tram rail_urban rail rail_electric bicycle pedestrian ship" speed="13.89" length="17.44" shape="972.98,2334.16 978.09,2334.71 981.53,2335.58 984.96,2336.59 990.04,2337.54"/>
        <lane id=":132347430_0_2" index="2" disallow="tram rail_urban rail rail_electric bicycle pedestrian ship" speed="13.89" length="17.44" shape="972.82,2337.36 977.86,2337.90 981.24,2338.77 984.61,2339.77 989.62,2340.72"/>
    </edge>
    <edge id=":132347430_3" function="internal">
        <lane id=":132347430_3_0" index="0" disallow="tram rail_urban rail rail_electric ship" speed="18.05" length="16.67" shape="972.66,2340.55 977.55,2340.99 980.85,2341.73 984.07,2342.89 988.74,2344.54"/>
    </edge>
    <edge id=":132347430_4" function="internal">
        <lane id=":132347430_4_0" index="0" disallow="tram rail_urban rail rail_electric ship" speed="18.05" length="15.82" shape="972.50,2343.75 977.14,2344.17 980.26,2344.89 983.32,2346.00 987.75,2347.58"/>
    </edge>
    <edge id=":133491023_0" function="internal">
        <lane id=":133491023_0_0" index="0" disallow="tram rail_urban rail rail_electric bicycle pedestrian ship" speed="13.89" length="38.41" shape="1362.23,2368.37 1400.62,2369.66"/>
    </edge>
    <edge id=":133491023_1" function="internal">
        <lane id=":133491023_1_0" index="0" disallow="tram rail_urban rail rail_electric bicycle pedestrian ship" speed="13.89" length="40.04" shape="1362.04,2371.57 1402.06,2372.94"/>
    </edge>
    <edge id=":133491023_2" function="internal">
        <lane id=":133491023_2_0" index="0" disallow="tram rail_urban rail rail_electric bicycle pedestrian ship" speed="13.89" length="40.35" shape="1362.04,2371.57 1402.47,2376.47"/>
        <lane id=":133491023_2_1" index="1" disallow="tram rail_urban rail rail_electric bicycle pedestrian ship" speed="13.89" length="40.35" shape="1361.86,2374.76 1401.92,2379.62"/>
        <lane id=":133491023_2_2" index="2" disallow="tram rail_urban rail rail_electric bicycle pedestrian ship" speed="13.89" length="40.35" shape="1361.67,2377.95 1401.36,2382.78"/>
    </edge>
    <edge id=":133492789_0" function="internal">
        <lane id=":133492789_0_0" index="0" disallow="tram rail_urban rail rail_electric bicycle pedestrian ship" speed="12.50" length="30.81" shape="1703.55,2669.12 1709.34,2672.92 1715.35,2675.93 1721.93,2679.87 1729.42,2686.43"/>
        <lane id=":133492789_0_1" index="1" disallow="tram rail_urban rail rail_electric bicycle pedestrian ship" speed="12.50" length="30.81" shape="1701.52,2671.59 1707.28,2675.37 1713.23,2678.33 1719.71,2682.18 1727.11,2688.64"/>
        <lane id=":133492789_0_2" index="2" disallow="tram rail_urban rail rail_electric bicycle pedestrian ship" speed="12.50" length="30.81" shape="1701.52,2671.59 1706.95,2675.74 1712.14,2679.50 1717.84,2684.12 1724.79,2690.85"/>
    </edge>
    <edge id=":133492789_3" function="internal">
        <lane id=":133492789_3_0" index="0" disallow="tram rail_urban rail rail_electric bicycle pedestrian ship" speed="13.89" length="30.59" shape="1698.92,2676.51 1708.13,2677.47 1714.64,2678.97 1720.33,2682.27 1727.11,2688.64"/>
        <lane id=":133492789_3_1" index="1" disallow="tram rail_urban rail rail_electric bicycle pedestrian ship" speed="13.89" length="30.59" shape="1697.55,2679.59 1706.56,2680.46 1712.85,2681.77 1718.30,2684.80 1724.79,2690.85"/>
        <lane id=":133492789_3_2" index="2" disallow="tram rail_urban rail rail_electric bicycle pedestrian ship" speed="13.89" length="30.59" shape="1696.17,2682.66 1704.85,2683.44 1710.94,2684.55 1716.23,2687.32 1722.48,2693.06"/>
    </edge>
    <edge id=":1420099939_0" function="internal">
        <lane id=":1420099939_0_0" index="0" disallow="tram rail_urban rail rail_electric ship" speed="6.65" length="9.09" shape="1619.45,2233.50 1619.67,2236.00 1620.61,2237.87 1622.26,2239.10 1624.62,2239.69"/>
    </edge>
    <edge id=":1420099939_1" function="internal">
        <lane id=":1420099939_1_0" index="0" disallow="tram rail_urban rail rail_electric ship" speed="27.78" length="11.10" shape="1619.45,2233.50 1618.87,2244.60"/>
        <lane id=":1420099939_1_1" index="1" disallow="tram rail_urban rail rail_electric ship" speed="27.78" length="11.10" shape="1616.25,2233.35 1615.68,2244.42"/>
    </edge>
    <edge id=":1420099939_3" function="internal">
        <lane id=":1420099939_3_0" index="0" disallow="tram rail_urban rail rail_electric ship" speed="13.89" length="14.15" shape="1610.54,2238.29 1624.62,2239.69"/>
    </edge>
    <edge id=":1420099939_4" function="internal">
        <lane id=":1420099939_4_0" index="0" disallow="tram rail_urban rail rail_electric ship" speed="6.61" length="9.04" shape="1610.54,2238.29 1612.91,2238.87 1614.55,2240.09 1615.48,2241.94 1615.68,2244.42"/>
    </edge>
    <edge id=":1420099941_0" function="internal">
        <lane id=":1420099941_0_0" index="0" disallow="tram rail_urban rail rail_electric ship" speed="8.00" length="6.59" shape="1708.66,2649.10 1708.07,2647.15 1707.31,2645.58 1706.40,2644.41 1705.32,2643.63"/>
    </edge>
    <edge id=":1420099941_1" function="internal">
        <lane id=":1420099941_1_0" index="0" disallow="tram rail_urban rail rail_electric ship" speed="8.01" length="6.64" shape="1711.65,2645.00 1710.52,2645.23 1709.09,2645.08 1707.35,2644.54 1705.32,2643.63"/>
    </edge>
    <edge id=":1420099953_0" function="internal">
        <lane id=":1420099953_0_0" index="0" disallow="tram rail_urban rail rail_electric bicycle pedestrian ship" speed="19.45" length="8.79" shape="1601.67,2558.11 1602.06,2560.56 1602.43,2562.23 1602.99,2563.84 1603.95,2566.13"/>
        <lane id=":1420099953_0_1" index="1" disallow="tram rail_urban rail rail_electric bicycle pedestrian ship" speed="19.45" length="8.79" shape="1598.51,2558.59 1598.93,2561.28 1599.34,2563.11 1599.96,2564.88 1601.01,2567.39"/>
    </edge>
    <edge id=":1420099953_2" function="internal">
        <lane id=":1420099953_2_0" index="0" disallow="tram rail_urban rail rail_electric bicycle pedestrian ship" speed="12.50" length="9.11" shape="1594.75,2560.25 1598.07,2568.65"/>
        <lane id=":1420099953_2_1" index="1" disallow="tram rail_urban rail rail_electric bicycle pedestrian ship" speed="12.50" length="9.11" shape="1591.75,2561.35 1595.12,2569.90"/>
    </edge>
    <edge id=":1420138331_0" function="internal">
        <lane id=":1420138331_0_0" index="0" disallow="tram rail_urban rail rail_electric ship" speed="22.22" length="6.92" shape="1553.10,2446.15 1552.32,2448.04 1552.09,2449.48 1551.77,2450.86 1550.75,2452.59"/>
    </edge>
    <edge id=":1420150299_0" function="internal">
        <lane id=":1420150299_0_0" index="0" disallow="tram rail_urban rail rail_electric bicycle pedestrian ship" speed="13.89" length="17.11" shape="1633.15,2760.73 1646.89,2750.54"/>
    </edge>
    <edge id=":1420150299_1" function="internal">
        <lane id=":1420150299_1_0" index="0" disallow="tram rail_urban rail rail_electric bicycle pedestrian ship" speed="13.89" length="17.11" shape="1633.15,2760.73 1636.69,2758.73 1640.76,2756.87 1644.90,2755.15 1648.67,2753.56"/>
    </edge>
    <edge id=":142808179_0" function="internal">
        <lane id=":142808179_0_0" index="0" disallow="tram rail_urban rail rail_electric ship" speed="6.52" length="9.00" shape="396.55,2599.26 395.14,2597.25 393.42,2596.16 391.38,2596.00 389.04,2596.78"/>
    </edge>
    <edge id=":142808179_1" function="internal">
        <lane id=":142808179_1_0" index="0" disallow="tram rail_urban rail rail_electric ship" speed="13.89" length="11.14" shape="396.55,2599.26 391.54,2589.31"/>
        <lane id=":142808179_1_1" index="1" disallow="tram rail_urban rail rail_electric ship" speed="13.89" length="11.14" shape="399.40,2597.82 394.40,2587.88"/>
    </edge>
    <edge id=":142808179_3" function="internal">
        <lane id=":142808179_3_0" index="0" disallow="tram rail_urban rail rail_electric ship" speed="3.65" length="2.34" shape="399.40,2597.82 399.58,2596.39 400.11,2595.67"/>
    </edge>
    <edge id=":142808179_8" function="internal">
        <lane id=":142808179_8_0" index="0" speed="3.65" length="2.34" shape="400.11,2595.67 401.00,2595.66 402.26,2596.37"/>
    </edge>
    <edge id=":142808179_4" function="internal">
        <lane id=":142808179_4_0" index="0" disallow="tram rail_urban rail rail_electric ship" speed="13.89" length="11.11" shape="400.12,2585.01 405.11,2594.93"/>
        <lane id=":142808179_4_1" index="1" disallow="tram rail_urban rail rail_electric ship" speed="13.89" length="11.11" shape="397.26,2586.44 402.26,2596.37"/>
    </edge>
    <edge id=":142808179_6" function="internal">
        <lane id=":142808179_6_0" index="0" disallow="tram rail_urban rail rail_electric ship" speed="8.08" length="3.64" shape="397.26,2586.44 397.69,2588.97 397.23,2589.94"/>
    </edge>
    <edge id=":142808179_7" function="internal">
        <lane id=":142808179_7_0" index="0" disallow="tram rail_urban rail rail_electric ship" speed="3.65" length="2.34" shape="397.26,2586.44 397.08,2587.87 396.54,2588.59"/>
    </edge>
    <edge id=":142808179_9" function="internal">
        <lane id=":142808179_9_0" index="0" speed="8.08" length="10.91" shape="397.23,2589.94 396.46,2591.54 393.58,2594.14 389.04,2596.78"/>
    </edge>
    <edge id=":142808179_10" function="internal">
        <lane id=":142808179_10_0" index="0" speed="3.65" length="2.34" shape="396.54,2588.59 395.65,2588.59 394.40,2587.88"/>
    </edge>
    <edge id=":1665039639_0" function="internal">
        <lane id=":1665039639_0_0" index="0" disallow="tram rail_urban rail rail_electric ship" speed="18.05" length="8.34" shape="452.92,2384.64 455.34,2384.16 456.99,2383.74 458.58,2383.16 460.85,2382.18"/>
    </edge>
    <edge id=":1665039639_1" function="internal">
        <lane id=":1665039639_1_0" index="0" disallow="tram rail_urban rail rail_electric bicycle pedestrian ship" speed="13.89" length="8.37" shape="453.51,2387.78 461.73,2386.21"/>
        <lane id=":1665039639_1_1" index="1" disallow="tram rail_urban rail rail_electric bicycle pedestrian ship" speed="13.89" length="8.37" shape="454.11,2390.92 462.33,2389.35"/>
        <lane id=":1665039639_1_2" index="2" disallow="tram rail_urban rail rail_electric bicycle pedestrian ship" speed="13.89" length="8.37" shape="454.71,2394.07 462.94,2392.50"/>
    </edge>
    <edge id=":1665039645_0" function="internal">
        <lane id=":1665039645_0_0" index="0" disallow="tram rail_urban rail rail_electric bicycle pedestrian ship" speed="13.89" length="19.66" shape="601.03,2393.91 595.43,2395.46 591.65,2397.06 588.59,2399.68 585.18,2404.27"/>
    </edge>
    <edge id=":1665039645_1" function="internal">
        <lane id=":1665039645_1_0" index="0" disallow="tram rail_urban rail rail_electric bicycle pedestrian ship" speed="13.89" length="20.32" shape="600.20,2390.82 594.37,2392.34 590.35,2393.82 587.08,2396.35 583.50,2401.01"/>
    </edge>
    <edge id=":1665039645_2" function="internal">
        <lane id=":1665039645_2_0" index="0" disallow="tram rail_urban rail rail_electric bicycle pedestrian ship" speed="13.89" length="19.83" shape="600.20,2390.82 594.47,2392.36 590.52,2393.34 586.54,2394.14 580.69,2395.12"/>
        <lane id=":1665039645_2_1" index="1" disallow="tram rail_urban rail rail_electric bicycle pedestrian ship" speed="13.89" length="19.83" shape="599.37,2387.73 593.73,2389.24 589.85,2390.21 585.94,2391.00 580.18,2391.96"/>
    </edge>
    <edge id=":1665298737_0" function="internal">
        <lane id=":1665298737_0_0" index="0" disallow="tram rail_urban rail rail_electric ship" speed="5.63" length="9.29" shape="848.91,2680.92 846.47,2679.52 844.64,2679.51 843.43,2680.88 842.83,2683.63"/>
    </edge>
    <edge id=":1665298737_1" function="internal">
        <lane id=":1665298737_1_0" index="0" disallow="tram rail_urban rail rail_electric ship" speed="9.94" length="12.63" shape="848.91,2680.92 845.87,2678.29 843.74,2675.71 842.54,2673.19 842.26,2670.74"/>
    </edge>
    <edge id=":1665298737_2" function="internal">
        <lane id=":1665298737_2_0" index="0" disallow="tram rail_urban rail rail_electric ship" speed="22.22" length="12.92" shape="839.64,2683.36 840.18,2679.99 840.97,2677.05 841.75,2674.11 842.26,2670.74"/>
    </edge>
    <edge id=":1665298737_3" function="internal">
        <lane id=":1665298737_3_0" index="0" disallow="tram rail_urban rail rail_electric ship" speed="3.65" length="4.67" shape="839.64,2683.36 840.54,2682.23 841.37,2681.90 842.14,2682.37 842.83,2683.63"/>
    </edge>
    <edge id=":1665298739_0" function="internal">
        <lane id=":1665298739_0_0" index="0" disallow="tram rail_urban rail rail_electric bicycle pedestrian ship" speed="13.89" length="7.54" shape="515.57,2549.32 514.14,2547.63 512.88,2546.72 511.62,2545.80 510.18,2544.12"/>
    </edge>
    <edge id=":1665298739_1" function="internal">
        <lane id=":1665298739_1_0" index="0" disallow="tram rail_urban rail rail_electric bicycle pedestrian ship" speed="10.12" length="5.90" shape="515.47,2540.52 516.36,2541.69 517.13,2542.36 518.06,2542.84 519.42,2543.44"/>
        <lane id=":1665298739_1_1" index="1" disallow="tram rail_urban rail rail_electric bicycle pedestrian ship" speed="11.69" length="5.90" shape="512.83,2542.32 514.01,2543.91 515.03,2544.85 516.26,2545.52 518.09,2546.35"/>
    </edge>
    <edge id=":1665298739_3" function="internal">
        <lane id=":1665298739_3_0" index="0" disallow="tram rail_urban rail rail_electric bicycle pedestrian ship" speed="3.65" length="2.14" shape="512.83,2542.32 512.84,2543.77 512.50,2544.37"/>
    </edge>
    <edge id=":1665298739_4" function="internal">
        <lane id=":1665298739_4_0" index="0" speed="3.65" length="2.53" shape="512.50,2544.37 512.40,2544.55 511.52,2544.67 510.18,2544.12"/>
    </edge>
    <edge id=":1665298742_0" function="internal">
        <lane id=":1665298742_0_0" index="0" disallow="tram rail_urban rail rail_electric bicycle pedestrian ship" speed="10.81" length="6.91" shape="342.06,2427.43 340.15,2426.65 338.79,2426.10 337.41,2425.93 335.45,2426.26"/>
    </edge>
    <edge id=":1665298742_1" function="internal">
        <lane id=":1665298742_1_0" index="0" disallow="tram rail_urban rail rail_electric bicycle pedestrian ship" speed="13.89" length="7.99" shape="342.34,2423.55 340.07,2423.68 338.47,2423.28 336.88,2422.92 334.64,2423.17"/>
        <lane id=":1665298742_1_1" index="1" disallow="tram rail_urban rail rail_electric bicycle pedestrian ship" speed="13.89" length="7.99" shape="341.71,2420.42 339.38,2420.55 337.75,2420.16 336.12,2419.81 333.83,2420.07"/>
        <lane id=":1665298742_1_2" index="2" disallow="tram rail_urban rail rail_electric bicycle pedestrian ship" speed="13.89" length="7.99" shape="341.08,2417.28 338.70,2417.42 337.03,2417.04 335.36,2416.70 333.01,2416.98"/>
    </edge>
    <edge id=":175993428_0" function="internal">
        <lane id=":175993428_0_0" index="0" disallow="tram rail_urban rail rail_electric ship" speed="10.82" length="17.78" shape="1379.77,2415.75 1377.83,2413.28 1374.52,2411.49 1369.84,2410.36 1363.79,2409.91"/>
    </edge>
    <edge id=":175993428_1" function="internal">
        <lane id=":175993428_1_0" index="0" disallow="tram rail_urban rail rail_electric bicycle pedestrian ship" speed="12.02" length="19.56" shape="1379.77,2415.75 1377.55,2412.31 1374.29,2409.58 1369.99,2407.58 1364.66,2406.29"/>
        <lane id=":175993428_1_1" index="1" disallow="tram rail_urban rail rail_electric bicycle pedestrian ship" speed="13.43" length="19.56" shape="1382.69,2414.44 1380.34,2410.81 1376.80,2407.75 1372.08,2405.27 1366.18,2403.36"/>
    </edge>
    <edge id=":175993428_3" function="internal">
        <lane id=":175993428_3_0" index="0" disallow="tram rail_urban rail rail_electric ship" speed="16.67" length="21.73" shape="1385.52,2409.68 1380.72,2409.89 1374.66,2409.97 1368.60,2409.96 1363.79,2409.91"/>
    </edge>
    <edge id=":175993428_4" function="internal">
        <lane id=":175993428_4_0" index="0" disallow="tram rail_urban rail rail_electric bicycle pedestrian ship" speed="22.22" length="20.44" shape="1385.52,2409.68 1381.76,2409.19 1377.62,2407.57 1372.59,2405.42 1366.18,2403.36"/>
    </edge>
    <edge id=":175993483_0" function="internal">
        <lane id=":175993483_0_0" index="0" disallow="tram rail_urban rail rail_electric ship" speed="6.55" length="9.27" shape="1527.34,2490.66 1526.00,2488.57 1524.28,2487.44 1522.17,2487.25 1519.68,2488.02"/>
    </edge>
    <edge id=":175993483_1" function="internal">
        <lane id=":175993483_1_0" index="0" disallow="tram rail_urban rail rail_electric ship" speed="22.22" length="15.71" shape="1527.34,2490.66 1525.61,2487.22 1523.59,2483.78 1521.41,2480.43 1519.21,2477.25"/>
    </edge>
    <edge id=":175993483_2" function="internal">
        <lane id=":175993483_2_0" index="0" disallow="tram rail_urban rail rail_electric ship" speed="13.40" length="20.52" shape="1527.34,2490.66 1525.68,2485.62 1525.22,2480.64 1525.96,2475.72 1527.91,2470.86"/>
    </edge>
    <edge id=":175993483_3" function="internal">
        <lane id=":175993483_3_0" index="0" disallow="tram rail_urban rail rail_electric ship" speed="18.06" length="21.28" shape="1534.72,2473.13 1531.71,2476.82 1527.75,2481.26 1523.51,2485.36 1519.68,2488.02"/>
    </edge>
    <edge id=":175993483_4" function="internal">