<?xml version="1.0" encoding="UTF-8"?>
<!-- generated on 2019-01-18 11:12:05.211000 by $Id$ via randomTrips.py
  options: 
-->
<routes xmlns:xsi="http://www.w3.org/2001/XMLSchema-instance" xsi:noNamespaceSchemaLocation="http://sumo.dlr.de/xsd/routes_file.xsd">
    <vType id="veh_passenger" vClass="passenger">
    </vType>
    <trip id="veh0" depart="0.00" departLane="best" from="37916549" to="-197054862" type="veh_passenger"/>
    <trip id="veh1" depart="3.00" departLane="best" from="141294961#4" to="128519864" type="veh_passenger"/>
    <trip id="veh2" depart="5.99" departLane="best" from="560266874#1" to="-424630852" type="veh_passenger"/>
    <trip id="veh3" depart="8.99" departLane="best" from="212723114" to="-211060858" type="veh_passenger"/>
    <trip id="veh4" depart="11.99" departLane="best" from="128511288#0" to="251628555" type="veh_passenger"/>
    <trip id="veh5" depart="14.99" departLane="best" from="-196799729#0" to="128515118#1" type="veh_passenger"/>
    <trip id="veh6" depart="17.98" departLane="best" from="37916640" to="290026187#2" type="veh_passenger"/>
    <trip id="veh8" depart="23.98" departLane="best" from="430124768#0" to="-16652218" type="veh_passenger"/>
    <trip id="veh9" depart="26.98" departLane="best" from="430124768#0" to="424630824#0" type="veh_passenger"/>
    <trip id="veh10" depart="29.97" departLane="best" from="172433906" to="-8579414#0" type="veh_passenger"/>
    <trip id="veh12" depart="35.97" departLane="best" from="-424630827#1" to="-424632407" type="veh_passenger"/>
    <trip id="veh13" depart="38.97" departLane="best" from="456288162" to="38508498" type="veh_passenger"/>
    <trip id="veh14" depart="41.96" departLane="best" from="430124768#0" to="424630860#6" type="veh_passenger"/>
    <trip id="veh15" depart="44.96" departLane="best" from="251628555" to="8579185" type="veh_passenger"/>
    <trip id="veh17" depart="50.96" departLane="best" from="435973649#2-AddedOffRampEdge" to="38508531" type="veh_passenger"/>
    <trip id="veh18" depart="53.95" departLane="best" from="462992753" to="369630802#2" type="veh_passenger"/>
    <trip id="veh19" depart="56.95" departLane="best" from="128515110#0" to="16975738#1" type="veh_passenger"/>
    <trip id="veh21" depart="62.95" departLane="best" from="-424630837#2" to="16975711" type="veh_passenger"/>
    <trip id="veh22" depart="65.94" departLane="best" from="371375600#1" to="196799737" type="veh_passenger"/>
    <trip id="veh25" depart="74.94" departLane="best" from="37916640" to="38508498" type="veh_passenger"/>
    <trip id="veh27" depart="80.93" departLane="best" from="-430127947" to="211051649" type="veh_passenger"/>
    <trip id="veh28" depart="83.93" departLane="best" from="8579414#0" to="39081424" type="veh_passenger"/>
    <trip id="veh29" depart="86.93" departLane="best" from="278923388#0" to="424630817" type="veh_passenger"/>
    <trip id="veh31" depart="92.92" departLane="best" from="128515110#0" to="-217333505#0" type="veh_passenger"/>
    <trip id="veh33" depart="98.91" departLane="best" from="-8579409" to="79669498#0" type="veh_passenger"/>
    <trip id="veh34" depart="101.91" departLane="best" from="38508500#0" to="211060853" type="veh_passenger"/>
    <trip id="veh35" depart="104.91" departLane="best" from="620987193#1" to="231281385#1" type="veh_passenger"/>
    <trip id="veh36" depart="107.91" departLane="best" from="128519869" to="15260367" type="veh_passenger"/>
    <trip id="veh37" depart="110.90" departLane="best" from="278923388#2" to="16652239" type="veh_passenger"/>
    <trip id="veh38" depart="113.90" departLane="best" from="197054866#2" to="128519863#1" type="veh_passenger"/>
    <trip id="veh40" depart="119.90" departLane="best" from="-424630827#1" to="-251628555" type="veh_passenger"/>
    <trip id="veh41" depart="122.89" departLane="best" from="-424632408" to="38738612#0" type="veh_passenger"/>
    <trip id="veh42" depart="125.89" departLane="best" from="428111148" to="212723116" type="veh_passenger"/>
    <trip id="veh43" depart="128.89" departLane="best" from="-38738612#1" to="211051649" type="veh_passenger"/>
    <trip id="veh44" depart="131.89" departLane="best" from="8579414#0" to="278923388#2" type="veh_passenger"/>
    <trip id="veh45" depart="134.88" departLane="best" from="8579181#0" to="498875212" type="veh_passenger"/>
    <trip id="veh46" depart="137.88" departLane="best" from="-128519864" to="424630860#0" type="veh_passenger"/>
    <trip id="veh47" depart="140.88" departLane="best" from="38738769#1" to="278923388#3" type="veh_passenger"/>
    <trip id="veh49" depart="146.87" departLane="best" from="-424632413#0" to="217770340" type="veh_passenger"/>
    <trip id="veh50" depart="149.87" departLane="best" from="229739161#1" to="8103471#1" type="veh_passenger"/>
    <trip id="veh51" depart="152.87" departLane="best" from="237048431" to="128515110#0" type="veh_passenger"/>
    <trip id="veh52" depart="155.87" departLane="best" from="620987193#0" to="524259147#2" type="veh_passenger"/>
    <trip id="veh53" depart="158.86" departLane="best" from="153916355#0" to="38738769#1" type="veh_passenger"/>
    <trip id="veh54" depart="161.86" departLane="best" from="369630801#0" to="-8579409" type="veh_passenger"/>
    <trip id="veh55" depart="164.86" departLane="best" from="424632408" to="278923392" type="veh_passenger"/>
    <trip id="veh56" depart="167.86" departLane="best" from="425926843" to="278923388#3" type="veh_passenger"/>
    <trip id="veh57" depart="170.85" departLane="best" from="-128511286" to="172728802#0" type="veh_passenger"/>
    <trip id="veh58" depart="173.85" departLane="best" from="-16976549" to="72916497" type="veh_passenger"/>
    <trip id="veh59" depart="176.85" departLane="best" from="524259568" to="435973657" type="veh_passenger"/>
    <trip id="veh60" depart="179.85" departLane="best" from="168667916" to="-369630801#0" type="veh_passenger"/>
    <trip id="veh61" depart="182.84" departLane="best" from="524259568" to="8103471#0" type="veh_passenger"/>
    <trip id="veh62" depart="185.84" departLane="best" from="-424630827#1" to="237169411" type="veh_passenger"/>
    <trip id="veh63" depart="188.84" departLane="best" from="-39081424" to="425926847" type="veh_passenger"/>
    <trip id="veh64" depart="191.83" departLane="best" from="424632413#0" to="-456287380" type="veh_passenger"/>
    <trip id="veh65" depart="194.83" departLane="best" from="231281388#2" to="310454395#0" type="veh_passenger"/>
    <trip id="veh66" depart="197.83" departLane="best" from="128519869" to="524259147#3" type="veh_passenger"/>
    <trip id="veh67" depart="200.83" departLane="best" from="212723114" to="128515118#4" type="veh_passenger"/>
    <trip id="veh69" depart="206.82" departLane="best" from="-8579169#1" to="16976677" type="veh_passenger"/>
    <trip id="veh71" depart="212.82" departLane="best" from="212723119#1" to="273593640#1" type="veh_passenger"/>
    <trip id="veh72" depart="215.81" departLane="best" from="-425846506" to="128519864" type="veh_passenger"/>
    <trip id="veh74" depart="221.81" departLane="best" from="128515110#1" to="128519864" type="veh_passenger"/>
    <trip id="veh75" depart="224.81" departLane="best" from="-39081424" to="38738612#0" type="veh_passenger"/>
    <trip id="veh76" depart="227.80" departLane="best" from="128515110#0" to="565903323#0" type="veh_passenger"/>
    <trip id="veh77" depart="230.80" departLane="best" from="462992553" to="-424630814#2" type="veh_passenger"/>
    <trip id="veh78" depart="233.80" departLane="best" from="128515117#0-AddedOffRampEdge" to="424630809#2" type="veh_passenger"/>
    <trip id="veh79" depart="236.80" departLane="best" from="108358683#1" to="-462992753" type="veh_passenger"/>
    <trip id="veh81" depart="242.79" departLane="best" from="231281385#2" to="430124768#1" type="veh_passenger"/>
    <trip id="veh82" depart="245.79" departLane="best" from="430124768#0" to="128515117#0" type="veh_passenger"/>
    <trip id="veh83" depart="248.79" departLane="best" from="-424630828#1" to="217333505#0" type="veh_passenger"/>
    <trip id="veh84" depart="251.78" departLane="best" from="212723116" to="231281389#1" type="veh_passenger"/>
    <trip id="veh85" depart="254.78" departLane="best" from="8579406" to="-424632408" type="veh_passenger"/>
    <trip id="veh87" depart="260.78" departLane="best" from="462992753" to="15260367" type="veh_passenger"/>
    <trip id="veh88" depart="263.77" departLane="best" from="-498875212" to="23000026" type="veh_passenger"/>
    <trip id="veh89" depart="266.77" departLane="best" from="212723114" to="16975711" type="veh_passenger"/>
    <trip id="veh90" depart="269.77" departLane="best" from="128515118#1-AddedOnRampEdge" to="621526225" type="veh_passenger"/>
    <trip id="veh91" depart="272.76" departLane="best" from="217333505#1" to="498875212" type="veh_passenger"/>
    <trip id="veh92" depart="275.76" departLane="best" from="278916136" to="-369630801#0" type="veh_passenger"/>
    <trip id="veh94" depart="281.76" departLane="best" from="456288162" to="108358683#1" type="veh_passenger"/>
    <trip id="veh100" depart="299.74" departLane="best" from="8579138" to="8579426" type="veh_passenger"/>
    <trip id="veh101" depart="302.74" departLane="best" from="278923387" to="424630848" type="veh_passenger"/>
    <trip id="veh102" depart="305.74" departLane="best" from="-430127810" to="16975887#3" type="veh_passenger"/>
    <trip id="veh103" depart="308.73" departLane="best" from="8579181#0" to="369631338" type="veh_passenger"/>
    <trip id="veh107" depart="320.72" departLane="best" from="-430127947" to="8579169#0" type="veh_passenger"/>
    <trip id="veh108" depart="323.72" departLane="best" from="-424630814#2" to="128515117#0" type="veh_passenger"/>
    <trip id="veh109" depart="326.72" departLane="best" from="35797465" to="424630809#5" type="veh_passenger"/>
    <trip id="veh110" depart="329.72" departLane="best" from="128515117#0-AddedOffRampEdge" to="-430124787" type="veh_passenger"/>
    <trip id="veh111" depart="332.71" departLane="best" from="560266874#0" to="15260367" type="veh_passenger"/>
    <trip id="veh112" depart="335.71" departLane="best" from="35797465" to="38508531" type="veh_passenger"/>
    <trip id="veh113" depart="338.71" departLane="best" from="212353005#1" to="369637281" type="veh_passenger"/>
    <trip id="veh114" depart="341.71" departLane="best" from="246708378" to="72921505" type="veh_passenger"/>
    <trip id="veh115" depart="344.70" departLane="best" from="128515117#0-AddedOffRampEdge" to="211060853" type="veh_passenger"/>
    <trip id="veh116" depart="347.70" departLane="best" from="38508532" to="16975887#5" type="veh_passenger"/>
    <trip id="veh118" depart="353.70" departLane="best" from="-39081424" to="231281385#1" type="veh_passenger"/>
    <trip id="veh119" depart="356.69" departLane="best" from="96124534" to="8579426" type="veh_passenger"/>
    <trip id="veh120" depart="359.69" departLane="best" from="-424630799" to="128515118#4" type="veh_passenger"/>
    <trip id="veh123" depart="368.68" departLane="best" from="435973656" to="424630827#1" type="veh_passenger"/>
    <trip id="veh124" depart="371.68" departLane="best" from="369630801#0" to="8579409" type="veh_passenger"/>
    <trip id="veh125" depart="374.68" departLane="best" from="37916640" to="-16975352" type="veh_passenger"/>
    <trip id="veh126" depart="377.67" departLane="best" from="430124787" to="16975887#4" type="veh_passenger"/>
    <trip id="veh127" depart="380.67" departLane="best" from="38508502" to="72921505" type="veh_passenger"/>
    <trip id="veh128" depart="383.67" departLane="best" from="-428111149#0" to="-430124768#0" type="veh_passenger"/>
    <trip id="veh129" depart="386.67" departLane="best" from="-424632407" to="310454395#0" type="veh_passenger"/>
    <trip id="veh130" depart="389.66" departLane="best" from="141294961#3" to="38508498" type="veh_passenger"/>
    <trip id="veh131" depart="392.66" departLane="best" from="424630819#3" to="128515118#3" type="veh_passenger"/>
    <trip id="veh132" depart="395.66" departLane="best" from="371375600#0" to="168667916" type="veh_passenger"/>
    <trip id="veh133" depart="398.66" departLane="best" from="235497118" to="565903323#0" type="veh_passenger"/>
    <trip id="veh134" depart="401.65" departLane="best" from="456287381" to="-424630866#0" type="veh_passenger"/>
    <trip id="veh135" depart="404.65" departLane="best" from="212723116" to="16975658" type="veh_passenger"/>
    <trip id="veh136" depart="407.65" departLane="best" from="-128511288#0" to="425927626" type="veh_passenger"/>
    <trip id="veh137" depart="410.65" departLane="best" from="37916541" to="16652239" type="veh_passenger"/>
    <trip id="veh138" depart="413.64" departLane="best" from="424630860#1" to="310454395#0" type="veh_passenger"/>
    <trip id="veh139" depart="416.64" departLane="best" from="212723117#0" to="-16976549" type="veh_passenger"/>
    <trip id="veh141" depart="422.64" departLane="best" from="565903327#0" to="290026187#2" type="veh_passenger"/>
    <trip id="veh143" depart="428.63" departLane="best" from="-430127810" to="-454557952" type="veh_passenger"/>
    <trip id="veh144" depart="431.63" departLane="best" from="16975627" to="565520814" type="veh_passenger"/>
    <trip id="veh145" depart="434.63" departLane="best" from="428111149#0" to="498875212" type="veh_passenger"/>
    <trip id="veh146" depart="437.62" departLane="best" from="565522125" to="128515118#4" type="veh_passenger"/>
    <trip id="veh147" depart="440.62" departLane="best" from="128515118#1-AddedOnRampEdge" to="-425927088" type="veh_passenger"/>
    <trip id="veh148" depart="443.62" departLane="best" from="425926843" to="560266874#0" type="veh_passenger"/>
    <trip id="veh149" depart="446.62" departLane="best" from="211060852#2" to="38508531" type="veh_passenger"/>
    <trip id="veh150" depart="449.61" departLane="best" from="-430127810" to="72916497" type="veh_passenger"/>
    <trip id="veh151" depart="452.61" departLane="best" from="46887907#0" to="8579185" type="veh_passenger"/>
    <trip id="veh153" depart="458.60" departLane="best" from="430124768#0" to="498875212" type="veh_passenger"/>
    <trip id="veh155" depart="464.60" departLane="best" from="428111148" to="-430124768#0" type="veh_passenger"/>
    <trip id="veh158" depart="473.59" departLane="best" from="23000026" to="16976677" type="veh_passenger"/>
    <trip id="veh159" depart="476.59" departLane="best" from="428111148" to="128519864" type="veh_passenger"/>
    <trip id="veh160" depart="479.59" departLane="best" from="-172728802#2" to="128515117#0" type="veh_passenger"/>
    <trip id="veh162" depart="485.58" departLane="best" from="8579181#0" to="16975738#0" type="veh_passenger"/>
    <trip id="veh163" depart="488.58" departLane="best" from="37916557#0" to="211060855#1" type="veh_passenger"/>
    <trip id="veh164" depart="491.58" departLane="best" from="8579186#1" to="278923388#3" type="veh_passenger"/>
    <trip id="veh165" depart="494.57" departLane="best" from="8103470" to="-430124768#0" type="veh_passenger"/>
    <trip id="veh166" depart="497.57" departLane="best" from="8579181#0" to="128515110#0" type="veh_passenger"/>
    <trip id="veh168" depart="503.57" departLane="best" from="-424632407" to="217770340" type="veh_passenger"/>
    <trip id="veh169" depart="506.56" departLane="best" from="424630828#0" to="16976677" type="veh_passenger"/>
    <trip id="veh170" depart="509.56" departLane="best" from="196799735#2" to="369630802#1" type="veh_passenger"/>
    <trip id="veh171" depart="512.56" departLane="best" from="128515119" to="424630827#1" type="veh_passenger"/>
    <trip id="veh173" depart="518.55" departLane="best" from="252274186" to="424630860#0" type="veh_passenger"/>
    <trip id="veh174" depart="521.55" departLane="best" from="424630860#1" to="424630809#2" type="veh_passenger"/>
    <trip id="veh175" depart="524.55" departLane="best" from="17446828" to="-424630814#2" type="veh_passenger"/>
    <trip id="veh176" depart="527.55" departLane="best" from="38508502" to="183462527#1" type="veh_passenger"/>
    <trip id="veh177" depart="530.54" departLane="best" from="16975738#0" to="462992753" type="veh_passenger"/>
    <trip id="veh178" depart="533.54" departLane="best" from="424630819#6" to="16975887#5" type="veh_passenger"/>
    <trip id="veh179" depart="536.54" departLane="best" from="16975627" to="212353005#1" type="veh_passenger"/>
    <trip id="veh180" depart="539.54" departLane="best" from="211060852#0" to="16975887#2" type="veh_passenger"/>
    <trip id="veh182" depart="545.53" departLane="best" from="8103470" to="424630809#6" type="veh_passenger"/>
    <trip id="veh183" depart="548.53" departLane="best" from="565903323#0" to="38508531" type="veh_passenger"/>
    <trip id="veh184" depart="551.52" departLane="best" from="153916355#0" to="310454395#0" type="veh_passenger"/>
    <trip id="veh185" depart="554.52" departLane="best" from="-128511286" to="16975738#1" type="veh_passenger"/>
    <trip id="veh186" depart="557.52" departLane="best" from="212723117#0" to="369631338" type="veh_passenger"/>
    <trip id="veh187" depart="560.52" departLane="best" from="37916640" to="231281389#0" type="veh_passenger"/>
    <trip id="veh189" depart="566.51" departLane="best" from="231281385#2" to="565520814" type="veh_passenger"/>
    <trip id="veh190" depart="569.51" departLane="best" from="428111149#0" to="128511288#0" type="veh_passenger"/>
    <trip id="veh192" depart="575.50" departLane="best" from="371375600#0" to="183462563-AddedOnRampEdge" type="veh_passenger"/>
    <trip id="veh194" depart="581.50" departLane="best" from="38508532" to="128519864" type="veh_passenger"/>
    <trip id="veh195" depart="584.50" departLane="best" from="-72916497" to="-197054862" type="veh_passenger"/>
    <trip id="veh196" depart="587.49" departLane="best" from="128515117#1" to="235497118" type="veh_passenger"/>
    <trip id="veh197" depart="590.49" departLane="best" from="456288162" to="-424630827#0" type="veh_passenger"/>
    <trip id="veh198" depart="593.49" departLane="best" from="211060856" to="38738612#0" type="veh_passenger"/>
    <trip id="veh199" depart="596.49" departLane="best" from="-560266875#0" to="424630823" type="veh_passenger"/>
    <trip id="veh200" depart="599.48" departLane="best" from="38508500#0" to="-16652218" type="veh_passenger"/>
    <trip id="veh201" depart="602.48" departLane="best" from="424630860#7" to="425927626" type="veh_passenger"/>
    <trip id="veh202" depart="605.48" departLane="best" from="-424630866#1" to="212723117#3" type="veh_passenger"/>
    <trip id="veh204" depart="611.47" departLane="best" from="244936637#1" to="-278920578" type="veh_passenger"/>
    <trip id="veh205" depart="614.47" departLane="best" from="128515118#1-AddedOnRampEdge" to="462992753" type="veh_passenger"/>
    <trip id="veh206" depart="617.47" departLane="best" from="229739163" to="430127947" type="veh_passenger"/>
    <trip id="veh207" depart="620.47" departLane="best" from="38508532" to="8579414#1" type="veh_passenger"/>
    <trip id="veh208" depart="623.46" departLane="best" from="35797465" to="8103471#1" type="veh_passenger"/>
    <trip id="veh209" depart="626.46" departLane="best" from="560266874#0" to="38508500#0" type="veh_passenger"/>
    <trip id="veh210" depart="629.46" departLane="best" from="424630819#6" to="251628555" type="veh_passenger"/>
    <trip id="veh211" depart="632.45" departLane="best" from="435973649#2-AddedOffRampEdge" to="310454395#0" type="veh_passenger"/>
    <trip id="veh213" depart="638.45" departLane="best" from="128515118#0" to="38738769#0" type="veh_passenger"/>
    <trip id="veh214" depart="641.45" departLane="best" from="371375600#0" to="16975627" type="veh_passenger"/>
    <trip id="veh215" depart="644.44" departLane="best" from="-424630814#0" to="16975738#1" type="veh_passenger"/>
    <trip id="veh216" depart="647.44" departLane="best" from="141294961#2" to="172433904#1" type="veh_passenger"/>
    <trip id="veh218" depart="653.44" departLane="best" from="128515110#1" to="424630821" type="veh_passenger"/>
    <trip id="veh219" depart="656.43" departLane="best" from="211060855#0" to="279753892#1" type="veh_passenger"/>
    <trip id="veh220" depart="659.43" departLane="best" from="211060858" to="128515118#4" type="veh_passenger"/>
    <trip id="veh221" depart="662.43" departLane="best" from="212353005#2" to="565903323#0" type="veh_passenger"/>
    <trip id="veh222" depart="665.43" departLane="best" from="334434102#0" to="424630823" type="veh_passenger"/>
    <trip id="veh223" depart="668.42" departLane="best" from="456291852" to="425927090" type="veh_passenger"/>
    <trip id="veh225" depart="674.42" departLane="best" from="172728802#0" to="425926847" type="veh_passenger"/>
    <trip id="veh226" depart="677.42" departLane="best" from="456288162" to="8103471#1" type="veh_passenger"/>
    <trip id="veh227" depart="680.41" departLane="best" from="212353005#1" to="424632413#1" type="veh_passenger"/>
    <trip id="veh228" depart="683.41" departLane="best" from="128511288#1" to="128519863#1" type="veh_passenger"/>
    <trip id="veh229" depart="686.41" departLane="best" from="212723117#1" to="-197054862" type="veh_passenger"/>
    <trip id="veh230" depart="689.41" departLane="best" from="172433906" to="424630809#7" type="veh_passenger"/>
    <trip id="veh231" depart="692.40" departLane="best" from="231281381#1" to="-454557952" type="veh_passenger"/>
    <trip id="veh232" depart="695.40" departLane="best" from="369631338" to="-197054862" type="veh_passenger"/>
    <trip id="veh233" depart="698.40" departLane="best" from="197054862" to="34431215" type="veh_passenger"/>
    <trip id="veh234" depart="701.40" departLane="best" from="-196799729#1" to="39081424" type="veh_passenger"/>
    <trip id="veh235" depart="704.39" departLane="best" from="-430124767" to="231281388#0" type="veh_passenger"/>
    <trip id="veh236" depart="707.39" departLane="best" from="-278920578" to="211051649" type="veh_passenger"/>
    <trip id="veh237" depart="710.39" departLane="best" from="-8579409" to="172728802#1" type="veh_passenger"/>
    <trip id="veh238" depart="713.39" departLane="best" from="424632407" to="211051649" type="veh_passenger"/>
    <trip id="veh240" depart="719.38" departLane="best" from="128515118#2" to="-424630842" type="veh_passenger"/>
    <trip id="veh241" depart="722.38" departLane="best" from="-16976549" to="278923392" type="veh_passenger"/>
    <trip id="veh242" depart="725.37" departLane="best" from="37916640" to="430124768#1" type="veh_passenger"/>
    <trip id="veh243" depart="728.37" departLane="best" from="37916640" to="425926847" type="veh_passenger"/>
    <trip id="veh244" depart="731.37" departLane="best" from="8213521" to="128515118#1-AddedOnRampEdge" type="veh_passenger"/>
    <trip id="veh245" depart="734.37" departLane="best" from="-172728802#0" to="-8579406" type="veh_passenger"/>
    <trip id="veh246" depart="737.36" departLane="best" from="-425927631" to="424630809#2" type="veh_passenger"/>
    <trip id="veh247" depart="740.36" departLane="best" from="424630809#4" to="425927626" type="veh_passenger"/>
    <trip id="veh249" depart="746.36" departLane="best" from="424630860#5" to="-430124768#0" type="veh_passenger"/>
    <trip id="veh250" depart="749.35" departLane="best" from="430125562" to="8579169#2" type="veh_passenger"/>
    <trip id="veh251" depart="752.35" departLane="best" from="-424632407" to="-197054862" type="veh_passenger"/>
    <trip id="veh252" depart="755.35" departLane="best" from="16975711" to="424630809#6" type="veh_passenger"/>
    <trip id="veh253" depart="758.35" departLane="best" from="8579138" to="211060853" type="veh_passenger"/>
    <trip id="veh254" depart="761.34" departLane="best" from="424630819#0" to="-424630828#0" type="veh_passenger"/>
    <trip id="veh255" depart="764.34" departLane="best" from="424630807#1" to="38738612#0" type="veh_passenger"/>
    <trip id="veh256" depart="767.34" departLane="best" from="-424630842" to="425927626" type="veh_passenger"/>
    <trip id="veh257" depart="770.34" departLane="best" from="456288162" to="37916557#1" type="veh_passenger"/>
    <trip id="veh258" depart="773.33" departLane="best" from="-425846506" to="8579186#2" type="veh_passenger"/>
    <trip id="veh259" depart="776.33" departLane="best" from="425927085" to="196799729#1" type="veh_passenger"/>
    <trip id="veh260" depart="779.33" departLane="best" from="212723117#0" to="196799745#1" type="veh_passenger"/>
    <trip id="veh261" depart="782.33" departLane="best" from="456288162" to="435973649#1" type="veh_passenger"/>
    <trip id="veh263" depart="788.32" departLane="best" from="424630814#0" to="22909512" type="veh_passenger"/>
    <trip id="veh264" depart="791.32" departLane="best" from="424630837#2" to="8579169#3" type="veh_passenger"/>
    <trip id="veh265" depart="794.32" departLane="best" from="141294961#0" to="430127947" type="veh_passenger"/>
    <trip id="veh266" depart="797.31" departLane="best" from="252274186" to="237169411" type="veh_passenger"/>
    <trip id="veh267" depart="800.31" departLane="best" from="212723117#1" to="424630860#6" type="veh_passenger"/>
    <trip id="veh269" depart="806.31" departLane="best" from="435973649#2-AddedOffRampEdge" to="-424630852" type="veh_passenger"/>
    <trip id="veh270" depart="809.30" departLane="best" from="524259568" to="15260367" type="veh_passenger"/>
    <trip id="veh271" depart="812.30" departLane="best" from="230597451#2" to="38508498" type="veh_passenger"/>
    <trip id="veh273" depart="818.29" departLane="best" from="456288162" to="128515110#1" type="veh_passenger"/>
    <trip id="veh274" depart="821.29" departLane="best" from="-8579414#1" to="430127810" type="veh_passenger"/>
    <trip id="veh275" depart="824.29" departLane="best" from="424630809#5" to="16975658" type="veh_passenger"/>
    <trip id="veh276" depart="827.29" departLane="best" from="-128519864" to="8103471#1" type="veh_passenger"/>
    <trip id="veh277" depart="830.28" departLane="best" from="-424630827#1" to="424630860#0" type="veh_passenger"/>
    <trip id="veh278" depart="833.28" departLane="best" from="235497118" to="425926847" type="veh_passenger"/>
    <trip id="veh279" depart="836.28" departLane="best" from="424630807#1" to="39081424" type="veh_passenger"/>
    <trip id="veh280" depart="839.28" departLane="best" from="-424630827#1" to="128519864" type="veh_passenger"/>
    <trip id="veh281" depart="842.27" departLane="best" from="424630807#1" to="16976677" type="veh_passenger"/>
    <trip id="veh283" depart="848.27" departLane="best" from="250047718#0" to="212723117#3" type="veh_passenger"/>
    <trip id="veh284" depart="851.27" departLane="best" from="424630860#4" to="183462527#1" type="veh_passenger"/>
    <trip id="veh286" depart="857.26" departLane="best" from="128515118#2" to="-430124787" type="veh_passenger"/>
    <trip id="veh287" depart="860.26" departLane="best" from="-560266874#1" to="-430124787" type="veh_passenger"/>
    <trip id="veh289" depart="866.25" departLane="best" from="-498875212" to="128515120" type="veh_passenger"/>
    <trip id="veh290" depart="869.25" departLane="best" from="235497117#0" to="424630860#3" type="veh_passenger"/>
    <trip id="veh293" depart="878.24" departLane="best" from="-462992553" to="-172728802#2" type="veh_passenger"/>
    <trip id="veh294" depart="881.24" departLane="best" from="250047718#2" to="16975627" type="veh_passenger"/>
    <trip id="veh295" depart="884.24" departLane="best" from="8579181#0" to="310454395#0" type="veh_passenger"/>
    <trip id="veh296" depart="887.24" departLane="best" from="424630809#2" to="-430125562" type="veh_passenger"/>
    <trip id="veh298" depart="893.23" departLane="best" from="231281381#2" to="229739161#1" type="veh_passenger"/>
    <trip id="veh299" depart="896.23" departLane="best" from="-498875212" to="-369630801#0" type="veh_passenger"/>
    <trip id="veh300" depart="899.23" departLane="best" from="8103470" to="235497122" type="veh_passenger"/>
    <trip id="veh301" depart="902.22" departLane="best" from="435973648" to="211060855#2" type="veh_passenger"/>
    <trip id="veh302" depart="905.22" departLane="best" from="-424630799" to="38738612#0" type="veh_passenger"/>
    <trip id="veh303" depart="908.22" departLane="best" from="-369631338" to="-8579183" type="veh_passenger"/>
    <trip id="veh304" depart="911.21" departLane="best" from="278923392" to="16976549" type="veh_passenger"/>
    <trip id="veh305" depart="914.21" departLane="best" from="8579414#0" to="-430124787" type="veh_passenger"/>
    <trip id="veh306" depart="917.21" departLane="best" from="424632409" to="38508498" type="veh_passenger"/>
    <trip id="veh307" depart="920.21" departLane="best" from="428111148" to="128519864" type="veh_passenger"/>
    <trip id="veh308" depart="923.20" departLane="best" from="246708378" to="230597451#0" type="veh_passenger"/>
    <trip id="veh309" depart="926.20" departLane="best" from="217333505#0" to="498875212" type="veh_passenger"/>
    <trip id="veh310" depart="929.20" departLane="best" from="8579414#0" to="16976677" type="veh_passenger"/>
    <trip id="veh311" depart="932.20" departLane="best" from="424630860#0" to="8103471#0" type="veh_passenger"/>
    <trip id="veh312" depart="935.19" departLane="best" from="-8579183" to="128515118#4" type="veh_passenger"/>
    <trip id="veh313" depart="938.19" departLane="best" from="38508502" to="-8579414#0" type="veh_passenger"/>
    <trip id="veh315" depart="944.19" departLane="best" from="-128511288#0" to="230597451#0" type="veh_passenger"/>
    <trip id="veh317" depart="950.18" departLane="best" from="128515111" to="424630827#1" type="veh_passenger"/>