<?xml version="1.0" encoding="UTF-8"?>
<!-- generated on 2019-01-18 11:12:05.598000 by $Id$ via randomTrips.py
  options: 
-->
<routes xmlns:xsi="http://www.w3.org/2001/XMLSchema-instance" xsi:noNamespaceSchemaLocation="http://sumo.dlr.de/xsd/routes_file.xsd">
    <vType id="bus_bus" vClass="bus">
    </vType>
    <trip id="bus0" depart="0.00" departLane="best" from="37916549" to="-197054862" type="bus_bus"/>
    <trip id="bus1" depart="8.99" departLane="best" from="141294961#4" to="128519864" type="bus_bus"/>
    <trip id="bus2" depart="17.98" departLane="best" from="212723114" to="-211060858" type="bus_bus"/>
    <trip id="bus3" depart="26.98" departLane="best" from="128511288#0" to="251628555" type="bus_bus"/>
    <trip id="bus4" depart="35.97" departLane="best" from="-196799729#0" to="128515118#1" type="bus_bus"/>
    <trip id="bus5" depart="44.96" departLane="best" from="37916640" to="290026187#2" type="bus_bus"/>
    <trip id="bus6" depart="53.95" departLane="best" from="430124768#0" to="-16652218" type="bus_bus"/>
    <trip id="bus7" depart="62.95" departLane="best" from="172433906" to="-8579414#0" type="bus_bus"/>
    <trip id="bus9" depart="80.93" departLane="best" from="251628555" to="8579185" type="bus_bus"/>
    <trip id="bus11" depart="98.91" departLane="best" from="435973649#2-AddedOffRampEdge" to="38508531" type="bus_bus"/>
    <trip id="bus12" depart="107.91" departLane="best" from="462992753" to="369630802#2" type="bus_bus"/>
    <trip id="bus13" depart="116.90" departLane="best" from="128515110#0" to="16975738#1" type="bus_bus"/>
    <trip id="bus15" depart="134.88" departLane="best" from="-424630837#2" to="16975711" type="bus_bus"/>
    <trip id="bus16" depart="143.88" departLane="best" from="371375600#1" to="196799737" type="bus_bus"/>
    <trip id="bus18" depart="161.86" departLane="best" from="37916640" to="38508498" type="bus_bus"/>
    <trip id="bus20" depart="179.85" departLane="best" from="8579414#0" to="39081424" type="bus_bus"/>
    <trip id="bus21" depart="188.84" departLane="best" from="128515110#0" to="-217333505#0" type="bus_bus"/>
    <trip id="bus23" depart="206.82" departLane="best" from="-8579409" to="79669498#0" type="bus_bus"/>
    <trip id="bus24" depart="215.81" departLane="best" from="38508500#0" to="211060853" type="bus_bus"/>
    <trip id="bus25" depart="224.81" departLane="best" from="620987193#1" to="231281385#1" type="bus_bus"/>
    <trip id="bus26" depart="233.80" departLane="best" from="128519869" to="15260367" type="bus_bus"/>
    <trip id="bus27" depart="242.79" departLane="best" from="278923388#2" to="16652239" type="bus_bus"/>
    <trip id="bus28" depart="251.78" departLane="best" from="197054866#2" to="128519863#1" type="bus_bus"/>
    <trip id="bus30" depart="269.77" departLane="best" from="-424630827#1" to="-251628555" type="bus_bus"/>
    <trip id="bus31" depart="278.76" departLane="best" from="-424632408" to="38738612#0" type="bus_bus"/>
    <trip id="bus32" depart="287.75" departLane="best" from="428111148" to="212723116" type="bus_bus"/>
    <trip id="bus33" depart="296.74" departLane="best" from="-38738612#1" to="211051649" type="bus_bus"/>
    <trip id="bus34" depart="305.74" departLane="best" from="8579414#0" to="278923388#2" type="bus_bus"/>
    <trip id="bus35" depart="314.73" departLane="best" from="8579181#0" to="498875212" type="bus_bus"/>
    <trip id="bus36" depart="323.72" departLane="best" from="-128519864" to="424630860#0" type="bus_bus"/>
    <trip id="bus37" depart="332.71" departLane="best" from="38738769#1" to="278923388#3" type="bus_bus"/>
    <trip id="bus39" depart="350.70" departLane="best" from="229739161#1" to="8103471#1" type="bus_bus"/>
    <trip id="bus40" depart="359.69" departLane="best" from="620987193#0" to="524259147#2" type="bus_bus"/>
    <trip id="bus41" depart="368.68" departLane="best" from="153916355#0" to="38738769#1" type="bus_bus"/>
    <trip id="bus42" depart="377.67" departLane="best" from="369630801#0" to="-8579409" type="bus_bus"/>
    <trip id="bus43" depart="386.67" departLane="best" from="425926843" to="278923388#3" type="bus_bus"/>
    <trip id="bus44" depart="395.66" departLane="best" from="-16976549" to="72916497" type="bus_bus"/>
    <trip id="bus45" depart="404.65" departLane="best" from="524259568" to="435973657" type="bus_bus"/>
    <trip id="bus46" depart="413.64" departLane="best" from="168667916" to="-369630801#0" type="bus_bus"/>
    <trip id="bus47" depart="422.64" departLane="best" from="524259568" to="8103471#0" type="bus_bus"/>
    <trip id="bus48" depart="431.63" departLane="best" from="-424630827#1" to="237169411" type="bus_bus"/>
    <trip id="bus49" depart="440.62" departLane="best" from="-39081424" to="425926847" type="bus_bus"/>
    <trip id="bus50" depart="449.61" departLane="best" from="424632413#0" to="-456287380" type="bus_bus"/>
    <trip id="bus51" depart="458.60" departLane="best" from="231281388#2" to="310454395#0" type="bus_bus"/>
    <trip id="bus52" depart="467.60" departLane="best" from="128519869" to="524259147#3" type="bus_bus"/>
    <trip id="bus53" depart="476.59" departLane="best" from="212723114" to="128515118#4" type="bus_bus"/>
    <trip id="bus56" depart="503.57" departLane="best" from="212723119#1" to="273593640#1" type="bus_bus"/>
    <trip id="bus57" depart="512.56" departLane="best" from="-425846506" to="128519864" type="bus_bus"/>
    <trip id="bus59" depart="530.54" departLane="best" from="-39081424" to="38738612#0" type="bus_bus"/>
    <trip id="bus61" depart="548.53" departLane="best" from="231281385#2" to="430124768#1" type="bus_bus"/>
    <trip id="bus62" depart="557.52" departLane="best" from="-424630828#1" to="217333505#0" type="bus_bus"/>
    <trip id="bus63" depart="566.51" departLane="best" from="212723116" to="231281389#1" type="bus_bus"/>
    <trip id="bus65" depart="584.50" departLane="best" from="462992753" to="15260367" type="bus_bus"/>
    <trip id="bus66" depart="593.49" departLane="best" from="212723114" to="16975711" type="bus_bus"/>
    <trip id="bus67" depart="602.48" departLane="best" from="128515118#1-AddedOnRampEdge" to="621526225" type="bus_bus"/>
    <trip id="bus68" depart="611.47" departLane="best" from="217333505#1" to="498875212" type="bus_bus"/>
    <trip id="bus69" depart="620.47" departLane="best" from="278916136" to="-369630801#0" type="bus_bus"/>
    <trip id="bus74" depart="665.43" departLane="best" from="8579138" to="8579426" type="bus_bus"/>
    <trip id="bus75" depart="674.42" departLane="best" from="-430127810" to="16975887#3" type="bus_bus"/>
    <trip id="bus76" depart="683.41" departLane="best" from="8579181#0" to="369631338" type="bus_bus"/>
    <trip id="bus80" depart="719.38" departLane="best" from="35797465" to="424630809#5" type="bus_bus"/>
    <trip id="bus81" depart="728.37" departLane="best" from="128515117#0-AddedOffRampEdge" to="-430124787" type="bus_bus"/>
    <trip id="bus82" depart="737.36" departLane="best" from="560266874#0" to="15260367" type="bus_bus"/>
    <trip id="bus83" depart="746.36" departLane="best" from="35797465" to="38508531" type="bus_bus"/>
    <trip id="bus84" depart="755.35" departLane="best" from="212353005#1" to="369637281" type="bus_bus"/>
    <trip id="bus85" depart="764.34" departLane="best" from="246708378" to="72921505" type="bus_bus"/>
    <trip id="bus86" depart="773.33" departLane="best" from="128515117#0-AddedOffRampEdge" to="211060853" type="bus_bus"/>
    <trip id="bus88" depart="791.32" departLane="best" from="-39081424" to="231281385#1" type="bus_bus"/>
    <trip id="bus89" depart="800.31" departLane="best" from="96124534" to="8579426" type="bus_bus"/>
    <trip id="bus90" depart="809.30" departLane="best" from="-424630799" to="128515118#4" type="bus_bus"/>
    <trip id="bus92" depart="827.29" departLane="best" from="435973656" to="424630827#1" type="bus_bus"/>
    <trip id="bus93" depart="836.28" departLane="best" from="369630801#0" to="8579409" type="bus_bus"/>
    <trip id="bus94" depart="845.27" departLane="best" from="37916640" to="-16975352" type="bus_bus"/>
    <trip id="bus95" depart="854.26" departLane="best" from="430124787" to="16975887#4" type="bus_bus"/>
    <trip id="bus96" depart="863.26" departLane="best" from="-428111149#0" to="-430124768#0" type="bus_bus"/>
    <trip id="bus97" depart="872.25" departLane="best" from="-424632407" to="310454395#0" type="bus_bus"/>
    <trip id="bus98" depart="881.24" departLane="best" from="141294961#3" to="38508498" type="bus_bus"/>
    <trip id="bus99" depart="890.23" departLane="best" from="371375600#0" to="168667916" type="bus_bus"/>
    <trip id="bus100" depart="899.23" departLane="best" from="456287381" to="-424630866#0" type="bus_bus"/>
    <trip id="bus101" depart="908.22" departLane="best" from="212723116" to="16975658" type="bus_bus"/>
    <trip id="bus102" depart="917.21" departLane="best" from="-128511288#0" to="425927626" type="bus_bus"/>
    <trip id="bus103" depart="926.20" departLane="best" from="37916541" to="16652239" type="bus_bus"/>
    <trip id="bus104" depart="935.19" departLane="best" from="424630860#1" to="310454395#0" type="bus_bus"/>
    <trip id="bus105" depart="944.19" departLane="best" from="212723117#0" to="-16976549" type="bus_bus"/>
    <trip id="bus107" depart="962.17" departLane="best" from="565903327#0" to="290026187#2" type="bus_bus"/>
    <trip id="bus109" depart="980.16" departLane="best" from="-430127810" to="-454557952" type="bus_bus"/>
    <trip id="bus110" depart="989.15" departLane="best" from="428111149#0" to="498875212" type="bus_bus"/>
    <trip id="bus111" depart="998.14" departLane="best" from="565522125" to="128515118#4" type="bus_bus"/>
    <trip id="bus112" depart="1007.13" departLane="best" from="128515118#1-AddedOnRampEdge" to="-425927088" type="bus_bus"/>
    <trip id="bus113" depart="1016.12" departLane="best" from="425926843" to="560266874#0" type="bus_bus"/>
    <trip id="bus114" depart="1025.12" departLane="best" from="211060852#2" to="38508531" type="bus_bus"/>
    <trip id="bus115" depart="1034.11" departLane="best" from="-430127810" to="72916497" type="bus_bus"/>
    <trip id="bus116" depart="1043.10" departLane="best" from="46887907#0" to="8579185" type="bus_bus"/>
    <trip id="bus118" depart="1061.09" departLane="best" from="428111148" to="-430124768#0" type="bus_bus"/>
    <trip id="bus120" depart="1079.07" departLane="best" from="23000026" to="16976677" type="bus_bus"/>
    <trip id="bus121" depart="1088.06" departLane="best" from="428111148" to="128519864" type="bus_bus"/>
    <trip id="bus123" depart="1106.05" departLane="best" from="8579181#0" to="16975738#0" type="bus_bus"/>
    <trip id="bus124" depart="1115.04" departLane="best" from="37916557#0" to="211060855#1" type="bus_bus"/>
    <trip id="bus125" depart="1124.03" departLane="best" from="8579186#1" to="278923388#3" type="bus_bus"/>
    <trip id="bus126" depart="1133.02" departLane="best" from="8103470" to="-430124768#0" type="bus_bus"/>
    <trip id="bus127" depart="1142.02" departLane="best" from="8579181#0" to="128515110#0" type="bus_bus"/>
    <trip id="bus129" depart="1160.00" departLane="best" from="424630828#0" to="16976677" type="bus_bus"/>
    <trip id="bus131" depart="1177.98" departLane="best" from="17446828" to="-424630814#2" type="bus_bus"/>
    <trip id="bus132" depart="1186.98" departLane="best" from="38508502" to="183462527#1" type="bus_bus"/>
    <trip id="bus133" depart="1195.97" departLane="best" from="16975738#0" to="462992753" type="bus_bus"/>
    <trip id="bus134" depart="1204.96" departLane="best" from="424630819#6" to="16975887#5" type="bus_bus"/>
    <trip id="bus135" depart="1213.95" departLane="best" from="16975627" to="212353005#1" type="bus_bus"/>
    <trip id="bus137" depart="1231.94" departLane="best" from="565903323#0" to="38508531" type="bus_bus"/>
    <trip id="bus138" depart="1240.93" departLane="best" from="153916355#0" to="310454395#0" type="bus_bus"/>
    <trip id="bus139" depart="1249.92" departLane="best" from="-128511286" to="16975738#1" type="bus_bus"/>
    <trip id="bus140" depart="1258.92" departLane="best" from="212723117#0" to="369631338" type="bus_bus"/>
    <trip id="bus141" depart="1267.91" departLane="best" from="37916640" to="231281389#0" type="bus_bus"/>
    <trip id="bus143" depart="1285.89" departLane="best" from="428111149#0" to="128511288#0" type="bus_bus"/>
    <trip id="bus145" depart="1303.88" departLane="best" from="371375600#0" to="183462563-AddedOnRampEdge" type="bus_bus"/>
    <trip id="bus146" depart="1312.87" departLane="best" from="38508532" to="128519864" type="bus_bus"/>
    <trip id="bus147" depart="1321.86" departLane="best" from="456288162" to="-424630827#0" type="bus_bus"/>
    <trip id="bus148" depart="1330.85" departLane="best" from="211060856" to="38738612#0" type="bus_bus"/>
    <trip id="bus149" depart="1339.85" departLane="best" from="424630860#7" to="425927626" type="bus_bus"/>
    <trip id="bus150" depart="1348.84" departLane="best" from="38508532" to="8579414#1" type="bus_bus"/>
    <trip id="bus151" depart="1357.83" departLane="best" from="35797465" to="8103471#1" type="bus_bus"/>
    <trip id="bus152" depart="1366.82" departLane="best" from="560266874#0" to="38508500#0" type="bus_bus"/>
    <trip id="bus153" depart="1375.81" departLane="best" from="424630819#6" to="251628555" type="bus_bus"/>
    <trip id="bus154" depart="1384.81" departLane="best" from="435973649#2-AddedOffRampEdge" to="310454395#0" type="bus_bus"/>
    <trip id="bus156" depart="1402.79" departLane="best" from="128515118#0" to="38738769#0" type="bus_bus"/>
    <trip id="bus157" depart="1411.78" departLane="best" from="371375600#0" to="16975627" type="bus_bus"/>
    <trip id="bus158" depart="1420.78" departLane="best" from="141294961#2" to="172433904#1" type="bus_bus"/>
    <trip id="bus160" depart="1438.76" departLane="best" from="211060858" to="128515118#4" type="bus_bus"/>
    <trip id="bus161" depart="1447.75" departLane="best" from="334434102#0" to="424630823" type="bus_bus"/>
    <trip id="bus163" depart="1465.74" departLane="best" from="172728802#0" to="425926847" type="bus_bus"/>
    <trip id="bus164" depart="1474.73" departLane="best" from="456288162" to="8103471#1" type="bus_bus"/>
    <trip id="bus165" depart="1483.72" departLane="best" from="212723117#1" to="-197054862" type="bus_bus"/>
    <trip id="bus166" depart="1492.71" departLane="best" from="172433906" to="424630809#7" type="bus_bus"/>
    <trip id="bus167" depart="1501.71" departLane="best" from="-196799729#1" to="39081424" type="bus_bus"/>
    <trip id="bus168" depart="1510.70" departLane="best" from="-430124767" to="231281388#0" type="bus_bus"/>
    <trip id="bus170" depart="1528.68" departLane="best" from="128515118#2" to="-424630842" type="bus_bus"/>
    <trip id="bus171" depart="1537.67" departLane="best" from="-16976549" to="278923392" type="bus_bus"/>
    <trip id="bus172" depart="1546.67" departLane="best" from="37916640" to="430124768#1" type="bus_bus"/>
    <trip id="bus173" depart="1555.66" departLane="best" from="37916640" to="425926847" type="bus_bus"/>
    <trip id="bus174" depart="1564.65" departLane="best" from="8213521" to="128515118#1-AddedOnRampEdge" type="bus_bus"/>
    <trip id="bus175" depart="1573.64" departLane="best" from="-425927631" to="424630809#2" type="bus_bus"/>
    <trip id="bus176" depart="1582.64" departLane="best" from="424630809#4" to="425927626" type="bus_bus"/>
    <trip id="bus178" depart="1600.62" departLane="best" from="-424632407" to="-197054862" type="bus_bus"/>
    <trip id="bus179" depart="1609.61" departLane="best" from="8579138" to="211060853" type="bus_bus"/>
    <trip id="bus180" depart="1618.61" departLane="best" from="424630807#1" to="38738612#0" type="bus_bus"/>
    <trip id="bus181" depart="1627.60" departLane="best" from="-424630842" to="425927626" type="bus_bus"/>
    <trip id="bus182" depart="1636.59" departLane="best" from="456288162" to="37916557#1" type="bus_bus"/>
    <trip id="bus183" depart="1645.58" departLane="best" from="-425846506" to="8579186#2" type="bus_bus"/>
    <trip id="bus184" depart="1654.57" departLane="best" from="212723117#0" to="196799745#1" type="bus_bus"/>
    <trip id="bus185" depart="1663.57" departLane="best" from="456288162" to="435973649#1" type="bus_bus"/>
    <trip id="bus187" depart="1681.55" departLane="best" from="141294961#0" to="430127947" type="bus_bus"/>
    <trip id="bus188" depart="1690.54" departLane="best" from="252274186" to="237169411" type="bus_bus"/>
    <trip id="bus190" depart="1708.53" departLane="best" from="435973649#2-AddedOffRampEdge" to="-424630852" type="bus_bus"/>
    <trip id="bus191" depart="1717.52" departLane="best" from="524259568" to="15260367" type="bus_bus"/>
    <trip id="bus192" depart="1726.51" departLane="best" from="230597451#2" to="38508498" type="bus_bus"/>
    <trip id="bus194" depart="1744.50" departLane="best" from="456288162" to="128515110#1" type="bus_bus"/>
    <trip id="bus195" depart="1753.49" departLane="best" from="424630809#5" to="16975658" type="bus_bus"/>
    <trip id="bus196" depart="1762.48" departLane="best" from="-128519864" to="8103471#1" type="bus_bus"/>
    <trip id="bus197" depart="1771.47" departLane="best" from="235497118" to="425926847" type="bus_bus"/>
    <trip id="bus198" depart="1780.47" departLane="best" from="424630807#1" to="39081424" type="bus_bus"/>
    <trip id="bus199" depart="1789.46" departLane="best" from="-424630827#1" to="128519864" type="bus_bus"/>
    <trip id="bus200" depart="1798.45" departLane="best" from="424630807#1" to="16976677" type="bus_bus"/>
    <trip id="bus203" depart="1825.43" departLane="best" from="128515118#2" to="-430124787" type="bus_bus"/>
    <trip id="bus204" depart="1834.42" departLane="best" from="-498875212" to="128515120" type="bus_bus"/>
    <trip id="bus206" depart="1852.40" departLane="best" from="250047718#2" to="16975627" type="bus_bus"/>
    <trip id="bus207" depart="1861.40" departLane="best" from="8579181#0" to="310454395#0" type="bus_bus"/>
    <trip id="bus208" depart="1870.39" departLane="best" from="424630809#2" to="-430125562" type="bus_bus"/>
    <trip id="bus209" depart="1879.38" departLane="best" from="231281381#2" to="229739161#1" type="bus_bus"/>
    <trip id="bus210" depart="1888.37" departLane="best" from="-498875212" to="-369630801#0" type="bus_bus"/>
    <trip id="bus211" depart="1897.36" departLane="best" from="8103470" to="235497122" type="bus_bus"/>
    <trip id="bus212" depart="1906.36" departLane="best" from="435973648" to="211060855#2" type="bus_bus"/>
    <trip id="bus213" depart="1915.35" departLane="best" from="-424630799" to="38738612#0" type="bus_bus"/>
    <trip id="bus214" depart="1924.34" departLane="best" from="-369631338" to="-8579183" type="bus_bus"/>
    <trip id="bus215" depart="1933.33" departLane="best" from="278923392" to="16976549" type="bus_bus"/>
    <trip id="bus216" depart="1942.33" departLane="best" from="8579414#0" to="-430124787" type="bus_bus"/>
    <trip id="bus217" depart="1951.32" departLane="best" from="424632409" to="38508498" type="bus_bus"/>
    <trip id="bus218" depart="1960.31" departLane="best" from="428111148" to="128519864" type="bus_bus"/>
    <trip id="bus219" depart="1969.30" departLane="best" from="246708378" to="230597451#0" type="bus_bus"/>
    <trip id="bus220" depart="1978.30" departLane="best" from="217333505#0" to="498875212" type="bus_bus"/>
    <trip id="bus221" depart="1987.29" departLane="best" from="8579414#0" to="16976677" type="bus_bus"/>
    <trip id="bus222" depart="1996.28" departLane="best" from="-8579183" to="128515118#4" type="bus_bus"/>
    <trip id="bus223" depart="2005.27" departLane="best" from="38508502" to="-8579414#0" type="bus_bus"/>
    <trip id="bus225" depart="2023.26" departLane="best" from="128515111" to="424630827#1" type="bus_bus"/>
    <trip id="bus226" depart="2032.25" departLane="best" from="424630799" to="621526225" type="bus_bus"/>
    <trip id="bus227" depart="2041.24" departLane="best" from="212723116" to="290026187#2" type="bus_bus"/>
    <trip id="bus228" depart="2050.23" departLane="best" from="37916640" to="565903327#1" type="bus_bus"/>
    <trip id="bus230" depart="2068.22" departLane="best" from="424630860#5" to="34436959#2" type="bus_bus"/>
    <trip id="bus231" depart="2077.21" departLane="best" from="16975887#3" to="15260367" type="bus_bus"/>
    <trip id="bus235" depart="2113.18" departLane="best" from="-211060858" to="425926847" type="bus_bus"/>
    <trip id="bus237" depart="2131.16" departLane="best" from="72916477#0" to="128515110#1" type="bus_bus"/>
    <trip id="bus239" depart="2149.15" departLane="best" from="172728794" to="183462563" type="bus_bus"/>
    <trip id="bus240" depart="2158.14" departLane="best" from="38508532" to="498875212" type="bus_bus"/>
    <trip id="bus241" depart="2167.13" departLane="best" from="153878962" to="79669498#1" type="bus_bus"/>
    <trip id="bus242" depart="2176.12" departLane="best" from="430124787" to="310454395#0" type="bus_bus"/>
    <trip id="bus243" depart="2185.12" departLane="best" from="229739162" to="172433904#0" type="bus_bus"/>
    <trip id="bus247" depart="2221.09" departLane="best" from="424630866#0" to="38738612#0" type="bus_bus"/>
    <trip id="bus248" depart="2230.08" departLane="best" from="-425846506" to="8579185" type="bus_bus"/>
    <trip id="bus249" depart="2239.07" departLane="best" from="369630801#0" to="141294961#3" type="bus_bus"/>
    <trip id="bus250" depart="2248.06" departLane="best" from="230597451#0" to="-430124787" type="bus_bus"/>
    <trip id="bus251" depart="2257.05" departLane="best" from="435973649#2-AddedOnRampEdge" to="244936637#2" type="bus_bus"/>
    <trip id="bus253" depart="2275.04" departLane="best" from="141294961#3" to="454557950" type="bus_bus"/>
    <trip id="bus254" depart="2284.03" departLane="best" from="8579186#0" to="15260367" type="bus_bus"/>
    <trip id="bus256" depart="2302.02" departLane="best" from="524259568" to="498875212" type="bus_bus"/>
    <trip id="bus258" depart="2320.00" departLane="best" from="211060858" to="72921505" type="bus_bus"/>
    <trip id="bus260" depart="2337.99" departLane="best" from="229739162" to="172433904#1" type="bus_bus"/>
    <trip id="bus262" depart="2355.97" departLane="best" from="425926843" to="-230398377" type="bus_bus"/>
    <trip id="bus263" depart="2364.96" departLane="best" from="38508502" to="435973649#0" type="bus_bus"/>
    <trip id="bus266" depart="2391.94" departLane="best" from="250047718#0" to="231281381#2" type="bus_bus"/>
    <trip id="bus267" depart="2400.93" departLane="best" from="37916640" to="-8579414#0" type="bus_bus"/>
    <trip id="bus268" depart="2409.92" departLane="best" from="172433906" to="424630819#6" type="bus_bus"/>
    <trip id="bus269" depart="2418.92" departLane="best" from="37916640" to="46887907#1" type="bus_bus"/>
    <trip id="bus270" depart="2427.91" departLane="best" from="456288162" to="498875212" type="bus_bus"/>
    <trip id="bus272" depart="2445.89" departLane="best" from="424630819#3" to="425926847" type="bus_bus"/>
    <trip id="bus273" depart="2454.88" departLane="best" from="-39081424" to="38738612#0" type="bus_bus"/>
    <trip id="bus274" depart="2463.88" departLane="best" from="72916500" to="8579426" type="bus_bus"/>
    <trip id="bus277" depart="2490.85" departLane="best" from="153916351" to="211051649" type="bus_bus"/>
    <trip id="bus278" depart="2499.85" departLane="best" from="-430124768#1" to="278923388#3" type="bus_bus"/>
    <trip id="bus280" depart="2517.83" departLane="best" from="498875214" to="38508531" type="bus_bus"/>
    <trip id="bus281" depart="2526.82" departLane="best" from="128515117#0-AddedOffRampEdge" to="565942870" type="bus_bus"/>
    <trip id="bus282" depart="2535.81" departLane="best" from="-430124768#1" to="231281388#0" type="bus_bus"/>
    <trip id="bus285" depart="2562.79" departLane="best" from="8579414#0" to="16975887#2" type="bus_bus"/>
    <trip id="bus287" depart="2580.78" departLane="best" from="141294961#4" to="34436959#0" type="bus_bus"/>
    <trip id="bus290" depart="2607.75" departLane="best" from="369630801#0" to="196799736" type="bus_bus"/>
    <trip id="bus291" depart="2616.74" departLane="best" from="371375600#1" to="38508531" type="bus_bus"/>
    <trip id="bus293" depart="2634.73" departLane="best" from="37916640" to="16976677" type="bus_bus"/>
    <trip id="bus294" depart="2643.72" departLane="best" from="212723119#3" to="369631338" type="bus_bus"/>
    <trip id="bus297" depart="2670.70" departLane="best" from="250047718#0" to="620987193#0" type="bus_bus"/>
    <trip id="bus299" depart="2688.68" departLane="best" from="172433906" to="-430124768#0" type="bus_bus"/>
    <trip id="bus300" depart="2697.68" departLane="best" from="8579169#2" to="-72916497" type="bus_bus"/>
    <trip id="bus301" depart="2706.67" departLane="best" from="8579181#0" to="498875212" type="bus_bus"/>
    <trip id="bus302" depart="2715.66" departLane="best" from="8579181#0" to="430127947" type="bus_bus"/>
    <trip id="bus303" depart="2724.65" departLane="best" from="-128519864" to="278923388#3" type="bus_bus"/>
    <trip id="bus305" depart="2742.64" departLane="best" from="435973648" to="72921505" type="bus_bus"/>
    <trip id="bus306" depart="2751.63" departLane="best" from="-196799729#0" to="560266874#0" type="bus_bus"/>
    <trip id="bus307" depart="2760.62" departLane="best" from="153916355#0" to="212353005#1" type="bus_bus"/>
    <trip id="bus308" depart="2769.61" departLane="best" from="38508532" to="424632408" type="bus_bus"/>
    <trip id="bus310" depart="2787.60" departLane="best" from="8213521" to="-217333505#0" type="bus_bus"/>
    <trip id="bus311" depart="2796.59" departLane="best" from="8213521" to="46892968" type="bus_bus"/>
    <trip id="bus313" depart="2814.57" departLane="best" from="17446828" to="211060855#0" type="bus_bus"/>
    <trip id="bus314" depart="2823.57" departLane="best" from="38508502" to="39081424" type="bus_bus"/>
    <trip id="bus315" depart="2832.56" departLane="best" from="35797465" to="-197054862" type="bus_bus"/>
    <trip id="bus316" depart="2841.55" departLane="best" from="428111148" to="15260367" type="bus_bus"/>
    <trip id="bus317" depart="2850.54" departLane="best" from="-39081424" to="425927090" type="bus_bus"/>
    <trip id="bus318" depart="2859.54" departLane="best" from="-8579183" to="128515120" type="bus_bus"/>
    <trip id="bus319" depart="2868.53" departLane="best" from="46892968" to="172728802#2" type="bus_bus"/>
    <trip id="bus320" depart="2877.52" departLane="best" from="-430125562" to="565520814" type="bus_bus"/>
    <trip id="bus321" depart="2886.51" departLane="best" from="-128511288#0" to="498875212" type="bus_bus"/>
    <trip id="bus322" depart="2895.50" departLane="best" from="38508502" to="-197054862" type="bus_bus"/>
    <trip id="bus323" depart="2904.50" departLane="best" from="128515117#0-AddedOffRampEdge" to="172433904#1" type="bus_bus"/>
    <trip id="bus328" depart="2949.46" departLane="best" from="8579169#2" to="-369631338" type="bus_bus"/>
    <trip id="bus329" depart="2958.45" departLane="best" from="424630792" to="237470831#0" type="bus_bus"/>
    <trip id="bus330" depart="2967.44" departLane="best" from="-424630814#2" to="38508498" type="bus_bus"/>
    <trip id="bus331" depart="2976.43" departLane="best" from="-39081424" to="16975627" type="bus_bus"/>
    <trip id="bus333" depart="2994.42" departLane="best" from="250047718#0" to="230597451#2" type="bus_bus"/>
    <trip id="bus334" depart="3003.41" departLane="best" from="369630801#0" to="-424632413#0" type="bus_bus"/>
    <trip id="bus335" depart="3012.40" departLane="best" from="37916640" to="425927626" type="bus_bus"/>
    <trip id="bus336" depart="3021.40" departLane="best" from="172433906" to="230597451#2" type="bus_bus"/>
    <trip id="bus338" depart="3039.38" departLane="best" from="72921510" to="-424630814#0" type="bus_bus"/>
    <trip id="bus339" depart="3048.37" departLane="best" from="430124787" to="312285778#1" type="bus_bus"/>
    <trip id="bus340" depart="3057.37" departLane="best" from="424630860#6" to="524220662" type="bus_bus"/>
    <trip id="bus341" depart="3066.36" departLane="best" from="424630821" to="8579181#2" type="bus_bus"/>
    <trip id="bus342" depart="3075.35" departLane="best" from="35797465" to="196799736" type="bus_bus"/>
    <trip id="bus344" depart="3093.33" departLane="best" from="38508502" to="128519864" type="bus_bus"/>
    <trip id="bus345" depart="3102.33" departLane="best" from="183462533" to="425927089" type="bus_bus"/>
    <trip id="bus347" depart="3120.31" departLane="best" from="456287379" to="8579185" type="bus_bus"/>
    <trip id="bus348" depart="3129.30" departLane="best" from="430124787" to="38508531" type="bus_bus"/>
    <trip id="bus349" depart="3138.30" departLane="best" from="37916557#1" to="-197054862" type="bus_bus"/>
    <trip id="bus351" depart="3156.28" departLane="best" from="46892968" to="34436959#0" type="bus_bus"/>
    <trip id="bus352" depart="3165.27" departLane="best" from="371375600#0" to="-211060858" type="bus_bus"/>
    <trip id="bus355" depart="3192.25" departLane="best" from="425926843" to="34436959#1" type="bus_bus"/>
    <trip id="bus356" depart="3201.24" departLane="best" from="-424630827#0" to="-369630801#0" type="bus_bus"/>
    <trip id="bus357" depart="3210.23" departLane="best" from="-430127947" to="38508531" type="bus_bus"/>
    <trip id="bus359" depart="3228.22" departLane="best" from="38508502" to="237169411" type="bus_bus"/>
    <trip id="bus361" depart="3246.20" departLane="best" from="212723117#0" to="16975738#1" type="bus_bus"/>